7.sdf
  ChemDraw10132515002D

 14 15  0  0  0  0  0  0  0  0999 V2000
   -1.9138   -0.6861    0.0000 C   0  0  0  0  0  0  0  0  0  0  0  0
   -1.9138   -1.5111    0.0000 C   0  0  0  0  0  0  0  0  0  0  0  0
   -1.1994   -1.9236    0.0000 C   0  0  0  0  0  0  0  0  0  0  0  0
   -0.4850   -1.5111    0.0000 C   0  0  0  0  0  0  0  0  0  0  0  0
   -0.4850   -0.6861    0.0000 C   0  0  0  0  0  0  0  0  0  0  0  0
   -1.1994   -0.2736    0.0000 C   0  0  0  0  0  0  0  0  0  0  0  0
    0.2999   -1.7660    0.0000 N   0  0  0  0  0  0  0  0  0  0  0  0
    0.7846   -1.0986    0.0000 C   0  0  0  0  0  0  0  0  0  0  0  0
    0.2999   -0.4311    0.0000 C   0  0  0  0  0  0  0  0  0  0  0  0
    0.5549    0.3538    0.0000 C   0  0  0  0  0  0  0  0  0  0  0  0
    1.3615    0.5251    0.0000 C   0  0  0  0  0  0  0  0  0  0  0  0
    1.9138   -0.0879    0.0000 O   0  0  0  0  0  0  0  0  0  0  0  0
    1.6171    1.3100    0.0000 O   0  0  0  0  0  0  0  0  0  0  0  0
    1.0653    1.9236    0.0000 C   0  0  0  0  0  0  0  0  0  0  0  0
  1  2  2  0        0
  2  3  1  0        0
  3  4  2  0        0
  4  5  1  0        0
  5  6  2  0        0
  6  1  1  0        0
  4  7  1  0        0
  7  8  1  0        0
  8  9  2  0        0
  9  5  1  0        0
  9 10  1  0        0
 10 11  1  0        0
 11 12  2  0        0
 11 13  1  0        0
 13 14  1  0        0
M  END
$$$$
