27c.sdf
  ChemDraw10132515282D

 29 32  0  0  0  0  0  0  0  0999 V2000
   -3.2728    0.6826    0.0000 C   0  0  0  0  0  0  0  0  0  0  0  0
   -3.2728   -0.1424    0.0000 C   0  0  0  0  0  0  0  0  0  0  0  0
   -2.5586   -0.5549    0.0000 C   0  0  0  0  0  0  0  0  0  0  0  0
   -1.8442   -0.1424    0.0000 C   0  0  0  0  0  0  0  0  0  0  0  0
   -1.8442    0.6826    0.0000 C   0  0  0  0  0  0  0  0  0  0  0  0
   -2.5586    1.0951    0.0000 C   0  0  0  0  0  0  0  0  0  0  0  0
   -1.0590   -0.3974    0.0000 N   0  0  0  0  0  0  0  0  0  0  0  0
   -0.5745    0.2701    0.0000 C   0  0  0  0  0  0  0  0  0  0  0  0
   -1.0590    0.9375    0.0000 C   0  0  0  0  0  0  0  0  0  0  0  0
   -0.8041   -1.1822    0.0000 C   0  0  0  0  0  0  0  0  0  0  0  0
   -1.3566   -1.7952    0.0000 C   0  0  0  0  0  0  0  0  0  0  0  0
   -2.1631   -1.6239    0.0000 C   0  0  0  0  0  0  0  0  0  0  0  0
   -2.7153   -2.2368    0.0000 C   0  0  0  0  0  0  0  0  0  0  0  0
   -2.4604   -3.0214    0.0000 C   0  0  0  0  0  0  0  0  0  0  0  0
   -1.6533   -3.1933    0.0000 C   0  0  0  0  0  0  0  0  0  0  0  0
   -1.1016   -2.5795    0.0000 C   0  0  0  0  0  0  0  0  0  0  0  0
   -3.0124   -3.6344    0.0000 Cl  0  0  0  0  0  0  0  0  0  0  0  0
   -0.8041    1.7218    0.0000 C   0  0  0  0  0  0  0  0  0  0  0  0
    0.0025    1.8937    0.0000 N   0  0  0  0  0  0  0  0  0  0  0  0
    0.2574    2.6779    0.0000 N   0  0  0  0  0  0  0  0  0  0  0  0
    1.0645    2.8498    0.0000 C   0  0  0  0  0  0  0  0  0  0  0  0
    1.3197    3.6344    0.0000 O   0  0  0  0  0  0  0  0  0  0  0  0
    1.6165    2.2363    0.0000 C   0  0  0  0  0  0  0  0  0  0  0  0
    1.3615    1.4520    0.0000 C   0  0  0  0  0  0  0  0  0  0  0  0
    1.9137    0.8390    0.0000 C   0  0  0  0  0  0  0  0  0  0  0  0
    2.7209    1.0104    0.0000 C   0  0  0  0  0  0  0  0  0  0  0  0
    2.9758    1.7952    0.0000 C   0  0  0  0  0  0  0  0  0  0  0  0
    2.4236    2.4082    0.0000 C   0  0  0  0  0  0  0  0  0  0  0  0
    3.2728    0.3974    0.0000 N   0  0  0  0  0  0  0  0  0  0  0  0
  1  2  2  0        0
  2  3  1  0        0
  3  4  2  0        0
  4  5  1  0        0
  5  6  2  0        0
  6  1  1  0        0
  4  7  1  0        0
  7  8  1  0        0
  8  9  2  0        0
  9  5  1  0        0
  7 10  1  0        0
 10 11  1  0        0
 11 12  2  0        0
 12 13  1  0        0
 13 14  2  0        0
 14 15  1  0        0
 15 16  2  0        0
 16 11  1  0        0
 14 17  1  0        0
  9 18  1  0        0
 18 19  2  0        0
 19 20  1  0        0
 20 21  1  0        0
 21 22  2  0        0
 21 23  1  0        0
 23 24  2  0        0
 24 25  1  0        0
 25 26  2  0        0
 26 27  1  0        0
 27 28  2  0        0
 28 23  1  0        0
 26 29  1  0        0
M  END
$$$$
