4.sdf
  ChemDraw10132515002D

 11 12  0  0  0  0  0  0  0  0999 V2000
   -1.6377    0.0132    0.0000 C   0  0  0  0  0  0  0  0  0  0  0  0
   -1.6377   -0.8118    0.0000 C   0  0  0  0  0  0  0  0  0  0  0  0
   -0.9233   -1.2243    0.0000 C   0  0  0  0  0  0  0  0  0  0  0  0
   -0.2088   -0.8118    0.0000 C   0  0  0  0  0  0  0  0  0  0  0  0
   -0.2088    0.0132    0.0000 C   0  0  0  0  0  0  0  0  0  0  0  0
   -0.9233    0.4257    0.0000 C   0  0  0  0  0  0  0  0  0  0  0  0
    0.5761   -1.0668    0.0000 N   0  0  0  0  0  0  0  0  0  0  0  0
    1.0608   -0.3993    0.0000 C   0  0  0  0  0  0  0  0  0  0  0  0
    0.5761    0.2681    0.0000 C   0  0  0  0  0  0  0  0  0  0  0  0
    0.8310    1.0524    0.0000 C   0  0  0  0  0  0  0  0  0  0  0  0
    1.6377    1.2243    0.0000 O   0  0  0  0  0  0  0  0  0  0  0  0
  1  2  2  0        0
  2  3  1  0        0
  3  4  2  0        0
  4  5  1  0        0
  5  6  2  0        0
  6  1  1  0        0
  4  7  1  0        0
  7  8  1  0        0
  8  9  2  0        0
  9  5  1  0        0
  9 10  1  0        0
 10 11  1  0        0
M  END
$$$$
