7c.sdf
  ChemDraw10132515192D

 22 24  0  0  0  0  0  0  0  0999 V2000
   -1.9135    0.8539    0.0000 C   0  0  0  0  0  0  0  0  0  0  0  0
   -1.9135    0.0289    0.0000 C   0  0  0  0  0  0  0  0  0  0  0  0
   -1.1991   -0.3836    0.0000 C   0  0  0  0  0  0  0  0  0  0  0  0
   -0.4847    0.0289    0.0000 C   0  0  0  0  0  0  0  0  0  0  0  0
   -0.4847    0.8539    0.0000 C   0  0  0  0  0  0  0  0  0  0  0  0
   -1.1991    1.2664    0.0000 C   0  0  0  0  0  0  0  0  0  0  0  0
    0.3002   -0.2260    0.0000 N   0  0  0  0  0  0  0  0  0  0  0  0
    0.7849    0.4414    0.0000 C   0  0  0  0  0  0  0  0  0  0  0  0
    0.3002    1.1089    0.0000 C   0  0  0  0  0  0  0  0  0  0  0  0
    0.5552    1.8938    0.0000 C   0  0  0  0  0  0  0  0  0  0  0  0
    1.3618    2.0651    0.0000 C   0  0  0  0  0  0  0  0  0  0  0  0
    0.5552   -1.0103    0.0000 C   0  0  0  0  0  0  0  0  0  0  0  0
    0.0029   -1.6234    0.0000 C   0  0  0  0  0  0  0  0  0  0  0  0
   -0.8038   -1.4521    0.0000 C   0  0  0  0  0  0  0  0  0  0  0  0
   -1.3561   -2.0651    0.0000 C   0  0  0  0  0  0  0  0  0  0  0  0
   -1.1011   -2.8500    0.0000 C   0  0  0  0  0  0  0  0  0  0  0  0
   -0.2939   -3.0213    0.0000 C   0  0  0  0  0  0  0  0  0  0  0  0
    0.2578   -2.4083    0.0000 C   0  0  0  0  0  0  0  0  0  0  0  0
   -1.6529   -3.4630    0.0000 Cl  0  0  0  0  0  0  0  0  0  0  0  0
    1.9135    1.4521    0.0000 O   0  0  0  0  0  0  0  0  0  0  0  0
    1.6168    2.8500    0.0000 O   0  0  0  0  0  0  0  0  0  0  0  0
    1.0645    3.4630    0.0000 C   0  0  0  0  0  0  0  0  0  0  0  0
  1  2  2  0        0
  2  3  1  0        0
  3  4  2  0        0
  4  5  1  0        0
  5  6  2  0        0
  6  1  1  0        0
  4  7  1  0        0
  7  8  1  0        0
  8  9  2  0        0
  9  5  1  0        0
  9 10  1  0        0
 10 11  1  0        0
  7 12  1  0        0
 12 13  1  0        0
 13 14  2  0        0
 14 15  1  0        0
 15 16  2  0        0
 16 17  1  0        0
 17 18  2  0        0
 18 13  1  0        0
 16 19  1  0        0
 11 20  2  0        0
 11 21  1  0        0
 21 22  1  0        0
M  END
$$$$
