
 OpenBabel02282620123D

 37 39  0  0  0  0  0  0  0  0999 V2000
   -2.1714   -1.1957   -0.7643 C   0  0  0  0  0  0  0  0  0  0  0  0
   -2.2846    0.1772   -0.9291 C   0  0  0  0  0  0  0  0  0  0  0  0
   -1.1619    1.0048   -0.8411 C   0  0  0  0  0  0  0  0  0  0  0  0
    0.0936    0.4253   -0.5664 C   0  0  0  0  0  0  0  0  0  0  0  0
    0.2313   -0.9658   -0.4441 C   0  0  0  0  0  0  0  0  0  0  0  0
   -0.9234   -1.7765   -0.5276 C   0  0  0  0  0  0  0  0  0  0  0  0
    1.3632    0.9891   -0.4061 N   0  0  0  0  0  0  0  0  0  0  0  0
    2.2769   -0.0447   -0.3142 C   0  0  0  0  0  0  0  0  0  0  0  0
    1.6165   -1.2534   -0.2653 C   0  0  0  0  0  0  0  0  0  0  0  0
    2.2325   -2.5510   -0.0813 C   0  0  0  0  0  0  0  0  0  0  0  0
    3.4991   -2.6294    0.1636 N   0  0  0  0  0  0  0  0  0  0  0  0
    3.9890   -3.8912    0.3447 N   0  0  0  0  0  0  0  0  0  0  0  0
    5.3433   -4.0963    0.4813 C   0  0  0  0  0  0  0  0  0  0  0  0
    6.2339   -3.2586    0.4416 O   0  0  0  0  0  0  0  0  0  0  0  0
    5.6462   -5.4124    0.6907 N   0  0  0  0  0  0  0  0  0  0  0  0
    1.7156    2.3569   -0.3421 C   0  0  0  0  0  0  0  0  0  0  0  0
    0.7944    3.4499    0.0309 C   0  0  0  0  0  0  0  0  0  0  0  0
    0.0293    3.3566    1.2005 C   0  0  0  0  0  0  0  0  0  0  0  0
   -0.8164    4.4080    1.5592 C   0  0  0  0  0  0  0  0  0  0  0  0
   -0.8830    5.5474    0.7563 C   0  0  0  0  0  0  0  0  0  0  0  0
   -0.1043    5.6523   -0.3973 C   0  0  0  0  0  0  0  0  0  0  0  0
    0.7462    4.6046   -0.7571 C   0  0  0  0  0  0  0  0  0  0  0  0
   -3.0552   -1.8249   -0.8376 H   0  0  0  0  0  0  0  0  0  0  0  0
   -3.2582    0.6166   -1.1365 H   0  0  0  0  0  0  0  0  0  0  0  0
   -1.2840    2.0709   -1.0035 H   0  0  0  0  0  0  0  0  0  0  0  0
   -0.8511   -2.8558   -0.4267 H   0  0  0  0  0  0  0  0  0  0  0  0
    3.3355    0.1766   -0.2290 H   0  0  0  0  0  0  0  0  0  0  0  0
    1.5815   -3.4400   -0.1413 H   0  0  0  0  0  0  0  0  0  0  0  0
    3.4123   -4.6905    0.1202 H   0  0  0  0  0  0  0  0  0  0  0  0
    5.0441   -5.9072    1.3323 H   0  0  0  0  0  0  0  0  0  0  0  0
    6.6332   -5.5354    0.8869 H   0  0  0  0  0  0  0  0  0  0  0  0
    0.0918    2.4793    1.8408 H   0  0  0  0  0  0  0  0  0  0  0  0
   -0.1452    6.5462   -1.0149 H   0  0  0  0  0  0  0  0  0  0  0  0
    1.3694    4.6907   -1.6450 H   0  0  0  0  0  0  0  0  0  0  0  0
   -1.4104    4.3336    2.4671 H   0  0  0  0  0  0  0  0  0  0  0  0
   -2.0317    6.9674    1.2435 Br  0  0  0  0  0  0  0  0  0  0  0  0
    2.8858    2.6558   -0.5732 O   0  0  0  0  0  0  0  0  0  0  0  0
  1  2  2  0  0  0  0
  1 23  1  0  0  0  0
  2  3  1  0  0  0  0
  2 24  1  0  0  0  0
  3  4  2  0  0  0  0
  3 25  1  0  0  0  0
  4  5  1  0  0  0  0
  4  7  1  0  0  0  0
  5  6  2  0  0  0  0
  6  1  1  0  0  0  0
  6 26  1  0  0  0  0
  7  8  1  0  0  0  0
  7 16  1  0  0  0  0
  8  9  2  0  0  0  0
  8 27  1  0  0  0  0
  9  5  1  0  0  0  0
  9 10  1  0  0  0  0
 10 11  2  0  0  0  0
 10 28  1  0  0  0  0
 11 12  1  0  0  0  0
 12 13  1  0  0  0  0
 12 29  1  0  0  0  0
 13 14  2  0  0  0  0
 13 15  1  0  0  0  0
 15 30  1  0  0  0  0
 15 31  1  0  0  0  0
 16 17  1  0  0  0  0
 16 37  2  0  0  0  0
 17 18  2  0  0  0  0
 18 19  1  0  0  0  0
 18 32  1  0  0  0  0
 19 20  2  0  0  0  0
 19 35  1  0  0  0  0
 20 21  1  0  0  0  0
 20 36  1  0  0  0  0
 21 22  2  0  0  0  0
 21 33  1  0  0  0  0
 22 17  1  0  0  0  0
 22 34  1  0  0  0  0
M  END
