
 OpenBabel02282620063D

 38 40  0  0  0  0  0  0  0  0999 V2000
   -2.1624   -1.1822   -1.0056 C   0  0  0  0  0  0  0  0  0  0  0  0
   -2.2484    0.1793   -1.2664 C   0  0  0  0  0  0  0  0  0  0  0  0
   -1.1330    1.0092   -1.1255 C   0  0  0  0  0  0  0  0  0  0  0  0
    0.0796    0.4392   -0.6999 C   0  0  0  0  0  0  0  0  0  0  0  0
    0.1919   -0.9336   -0.4418 C   0  0  0  0  0  0  0  0  0  0  0  0
   -0.9508   -1.7497   -0.6003 C   0  0  0  0  0  0  0  0  0  0  0  0
    1.3217    0.9986   -0.4599 N   0  0  0  0  0  0  0  0  0  0  0  0
    2.2069    0.0166   -0.0877 C   0  0  0  0  0  0  0  0  0  0  0  0
    1.5517   -1.1986   -0.0875 C   0  0  0  0  0  0  0  0  0  0  0  0
    2.1553   -2.4874    0.1785 C   0  0  0  0  0  0  0  0  0  0  0  0
    3.4328   -2.5718    0.3638 N   0  0  0  0  0  0  0  0  0  0  0  0
    3.9211   -3.8358    0.5467 N   0  0  0  0  0  0  0  0  0  0  0  0
    5.2810   -4.0561    0.5142 C   0  0  0  0  0  0  0  0  0  0  0  0
    6.1682   -3.2279    0.3677 O   0  0  0  0  0  0  0  0  0  0  0  0
    5.5911   -5.3790    0.6646 N   0  0  0  0  0  0  0  0  0  0  0  0
    1.7331    2.3842   -0.7002 C   0  0  0  0  0  0  0  0  0  0  0  0
    0.8326    3.4366   -0.0966 C   0  0  0  0  0  0  0  0  0  0  0  0
    0.3939    3.3662    1.2339 C   0  0  0  0  0  0  0  0  0  0  0  0
   -0.4424    4.3566    1.7608 C   0  0  0  0  0  0  0  0  0  0  0  0
   -0.8292    5.4349    0.9658 C   0  0  0  0  0  0  0  0  0  0  0  0
   -0.3790    5.5359   -0.3488 C   0  0  0  0  0  0  0  0  0  0  0  0
    0.4534    4.5438   -0.8735 C   0  0  0  0  0  0  0  0  0  0  0  0
   -3.0412   -1.8112   -1.1231 H   0  0  0  0  0  0  0  0  0  0  0  0
   -3.1955    0.6092   -1.5843 H   0  0  0  0  0  0  0  0  0  0  0  0
   -1.2246    2.0697   -1.3346 H   0  0  0  0  0  0  0  0  0  0  0  0
   -0.8986   -2.8179   -0.4131 H   0  0  0  0  0  0  0  0  0  0  0  0
    3.2476    0.2432    0.1147 H   0  0  0  0  0  0  0  0  0  0  0  0
    1.4927   -3.3696    0.1871 H   0  0  0  0  0  0  0  0  0  0  0  0
    3.3210   -4.6280    0.3606 H   0  0  0  0  0  0  0  0  0  0  0  0
    5.0614   -5.8855    1.3584 H   0  0  0  0  0  0  0  0  0  0  0  0
    6.5925   -5.5209    0.7317 H   0  0  0  0  0  0  0  0  0  0  0  0
    1.7905    2.4843   -1.7908 H   0  0  0  0  0  0  0  0  0  0  0  0
    2.7440    2.5146   -0.2959 H   0  0  0  0  0  0  0  0  0  0  0  0
    0.6868    2.5269    1.8628 H   0  0  0  0  0  0  0  0  0  0  0  0
   -0.6681    6.3757   -0.9758 H   0  0  0  0  0  0  0  0  0  0  0  0
    0.7987    4.6329   -1.9021 H   0  0  0  0  0  0  0  0  0  0  0  0
   -0.7868    4.2718    2.7886 H   0  0  0  0  0  0  0  0  0  0  0  0
   -2.0857    6.8998    1.7421 I   0  0  0  0  0  0  0  0  0  0  0  0
  1  2  2  0  0  0  0
  1 23  1  0  0  0  0
  2  3  1  0  0  0  0
  2 24  1  0  0  0  0
  3  4  2  0  0  0  0
  3 25  1  0  0  0  0
  4  5  1  0  0  0  0
  4  7  1  0  0  0  0
  5  6  2  0  0  0  0
  6  1  1  0  0  0  0
  6 26  1  0  0  0  0
  7  8  1  0  0  0  0
  7 16  1  0  0  0  0
  8  9  2  0  0  0  0
  8 27  1  0  0  0  0
  9  5  1  0  0  0  0
  9 10  1  0  0  0  0
 10 11  2  0  0  0  0
 10 28  1  0  0  0  0
 11 12  1  0  0  0  0
 12 13  1  0  0  0  0
 12 29  1  0  0  0  0
 13 14  2  0  0  0  0
 13 15  1  0  0  0  0
 15 30  1  0  0  0  0
 15 31  1  0  0  0  0
 16 17  1  0  0  0  0
 16 32  1  0  0  0  0
 16 33  1  0  0  0  0
 17 18  2  0  0  0  0
 18 19  1  0  0  0  0
 18 34  1  0  0  0  0
 19 20  2  0  0  0  0
 19 37  1  0  0  0  0
 20 21  1  0  0  0  0
 20 38  1  0  0  0  0
 21 22  2  0  0  0  0
 21 35  1  0  0  0  0
 22 17  1  0  0  0  0
 22 36  1  0  0  0  0
M  END
