10a.sdf
  ChemDraw10132515102D

 29 32  0  0  0  0  0  0  0  0999 V2000
   -3.6552    0.5964    0.0000 C   0  0  0  0  0  0  0  0  0  0  0  0
   -3.6552   -0.2286    0.0000 C   0  0  0  0  0  0  0  0  0  0  0  0
   -2.9408   -0.6411    0.0000 C   0  0  0  0  0  0  0  0  0  0  0  0
   -2.2264   -0.2286    0.0000 C   0  0  0  0  0  0  0  0  0  0  0  0
   -2.2264    0.5964    0.0000 C   0  0  0  0  0  0  0  0  0  0  0  0
   -2.9408    1.0089    0.0000 C   0  0  0  0  0  0  0  0  0  0  0  0
   -1.4415   -0.4835    0.0000 N   0  0  0  0  0  0  0  0  0  0  0  0
   -0.9568    0.1839    0.0000 C   0  0  0  0  0  0  0  0  0  0  0  0
   -1.4415    0.8514    0.0000 C   0  0  0  0  0  0  0  0  0  0  0  0
   -1.1865    1.6363    0.0000 C   0  0  0  0  0  0  0  0  0  0  0  0
   -0.3793    1.8081    0.0000 C   0  0  0  0  0  0  0  0  0  0  0  0
   -0.1243    2.5924    0.0000 C   0  0  0  0  0  0  0  0  0  0  0  0
    0.6823    2.7643    0.0000 C   0  0  0  0  0  0  0  0  0  0  0  0
   -0.6766    3.2060    0.0000 O   0  0  0  0  0  0  0  0  0  0  0  0
    1.2346    2.1513    0.0000 C   0  0  0  0  0  0  0  0  0  0  0  0
    2.0413    2.3232    0.0000 C   0  0  0  0  0  0  0  0  0  0  0  0
    2.2963    3.1081    0.0000 C   0  0  0  0  0  0  0  0  0  0  0  0
    1.7440    3.7211    0.0000 C   0  0  0  0  0  0  0  0  0  0  0  0
    0.9367    3.5492    0.0000 C   0  0  0  0  0  0  0  0  0  0  0  0
    3.1029    3.2799    0.0000 O   0  0  0  0  0  0  0  0  0  0  0  0
    3.6552    2.6669    0.0000 C   0  0  0  0  0  0  0  0  0  0  0  0
   -1.1865   -1.2679    0.0000 C   0  0  0  0  0  0  0  0  0  0  0  0
   -1.7382   -1.8815    0.0000 C   0  0  0  0  0  0  0  0  0  0  0  0
   -2.5455   -1.7102    0.0000 C   0  0  0  0  0  0  0  0  0  0  0  0
   -3.0972   -2.3232    0.0000 C   0  0  0  0  0  0  0  0  0  0  0  0
   -2.8422   -3.1075    0.0000 C   0  0  0  0  0  0  0  0  0  0  0  0
   -2.0350   -3.2788    0.0000 C   0  0  0  0  0  0  0  0  0  0  0  0
   -1.4833   -2.6658    0.0000 C   0  0  0  0  0  0  0  0  0  0  0  0
   -3.3940   -3.7211    0.0000 Br  0  0  0  0  0  0  0  0  0  0  0  0
  1  2  2  0        0
  2  3  1  0        0
  3  4  2  0        0
  4  5  1  0        0
  5  6  2  0        0
  6  1  1  0        0
  4  7  1  0        0
  7  8  1  0        0
  8  9  2  0        0
  9  5  1  0        0
  9 10  1  0        0
 10 11  2  0        0
 11 12  1  0        0
 12 13  1  0        0
 12 14  2  0        0
 13 15  1  0        0
 15 16  2  0        0
 16 17  1  0        0
 17 18  2  0        0
 18 19  1  0        0
 19 13  2  0        0
 17 20  1  0        0
 20 21  1  0        0
  7 22  1  0        0
 22 23  1  0        0
 23 24  2  0        0
 24 25  1  0        0
 25 26  2  0        0
 26 27  1  0        0
 27 28  2  0        0
 28 23  1  0        0
 26 29  1  0        0
M  END
$$$$
