17e.sdf
  ChemDraw10132515412D

 18 19  0  0  0  0  0  0  0  0999 V2000
   -2.4449   -0.2366    0.0000 C   0  0  0  0  0  0  0  0  0  0  0  0
   -2.4449   -1.0616    0.0000 C   0  0  0  0  0  0  0  0  0  0  0  0
   -1.7304   -1.4741    0.0000 C   0  0  0  0  0  0  0  0  0  0  0  0
   -1.0160   -1.0616    0.0000 C   0  0  0  0  0  0  0  0  0  0  0  0
   -1.0160   -0.2366    0.0000 C   0  0  0  0  0  0  0  0  0  0  0  0
   -1.7304    0.1759    0.0000 C   0  0  0  0  0  0  0  0  0  0  0  0
   -0.2311   -1.3168    0.0000 N   0  0  0  0  0  0  0  0  0  0  0  0
    0.2537   -0.6491    0.0000 C   0  0  0  0  0  0  0  0  0  0  0  0
   -0.2311    0.0184    0.0000 C   0  0  0  0  0  0  0  0  0  0  0  0
    0.0238    0.8032    0.0000 C   0  0  0  0  0  0  0  0  0  0  0  0
    0.8304    0.9745    0.0000 N   0  0  0  0  0  0  0  0  0  0  0  0
    1.0861    1.7588    0.0000 N   0  0  0  0  0  0  0  0  0  0  0  0
    1.8927    1.9302    0.0000 C   0  0  0  0  0  0  0  0  0  0  0  0
    2.1476    2.7150    0.0000 O   0  0  0  0  0  0  0  0  0  0  0  0
    2.4449    1.3172    0.0000 N   0  0  0  0  0  0  0  0  0  0  0  0
    0.0243   -2.1016    0.0000 C   0  0  0  0  0  0  0  0  0  0  0  0
   -0.5274   -2.7150    0.0000 C   0  0  0  0  0  0  0  0  0  0  0  0
    0.8314   -2.2727    0.0000 O   0  0  0  0  0  0  0  0  0  0  0  0
  1  2  2  0        0
  2  3  1  0        0
  3  4  2  0        0
  4  5  1  0        0
  5  6  2  0        0
  6  1  1  0        0
  4  7  1  0        0
  7  8  1  0        0
  8  9  2  0        0
  9  5  1  0        0
  9 10  1  0        0
 10 11  2  0        0
 11 12  1  0        0
 12 13  1  0        0
 13 14  2  0        0
 13 15  1  0        0
  7 16  1  0        0
 16 17  1  0        0
 16 18  2  0        0
M  END
$$$$
