18d.sdf
  ChemDraw10132515372D

 28 31  0  0  0  0  0  0  0  0999 V2000
   -3.1245    0.4620    0.0000 C   0  0  0  0  0  0  0  0  0  0  0  0
   -3.1245   -0.3630    0.0000 C   0  0  0  0  0  0  0  0  0  0  0  0
   -2.4101   -0.7755    0.0000 C   0  0  0  0  0  0  0  0  0  0  0  0
   -1.6956   -0.3630    0.0000 C   0  0  0  0  0  0  0  0  0  0  0  0
   -1.6956    0.4620    0.0000 C   0  0  0  0  0  0  0  0  0  0  0  0
   -2.4101    0.8745    0.0000 C   0  0  0  0  0  0  0  0  0  0  0  0
   -0.9108   -0.6179    0.0000 N   0  0  0  0  0  0  0  0  0  0  0  0
   -0.4260    0.0495    0.0000 C   0  0  0  0  0  0  0  0  0  0  0  0
   -0.9108    0.7169    0.0000 C   0  0  0  0  0  0  0  0  0  0  0  0
   -0.6559    1.5021    0.0000 C   0  0  0  0  0  0  0  0  0  0  0  0
    0.1510    1.6731    0.0000 N   0  0  0  0  0  0  0  0  0  0  0  0
    0.4065    2.4577    0.0000 N   0  0  0  0  0  0  0  0  0  0  0  0
    1.2130    2.6287    0.0000 C   0  0  0  0  0  0  0  0  0  0  0  0
    1.4679    3.4138    0.0000 O   0  0  0  0  0  0  0  0  0  0  0  0
    1.7655    2.0158    0.0000 C   0  0  0  0  0  0  0  0  0  0  0  0
   -0.6550   -1.4028    0.0000 C   0  0  0  0  0  0  0  0  0  0  0  0
   -1.2075   -2.0158    0.0000 C   0  0  0  0  0  0  0  0  0  0  0  0
   -2.0141   -1.8444    0.0000 C   0  0  0  0  0  0  0  0  0  0  0  0
   -2.5663   -2.4574    0.0000 C   0  0  0  0  0  0  0  0  0  0  0  0
   -2.3108   -3.2420    0.0000 C   0  0  0  0  0  0  0  0  0  0  0  0
   -1.5043   -3.4138    0.0000 C   0  0  0  0  0  0  0  0  0  0  0  0
   -0.9520   -2.8001    0.0000 C   0  0  0  0  0  0  0  0  0  0  0  0
    0.1515   -1.5741    0.0000 O   0  0  0  0  0  0  0  0  0  0  0  0
    1.5106    1.2312    0.0000 C   0  0  0  0  0  0  0  0  0  0  0  0
    2.0628    0.6182    0.0000 C   0  0  0  0  0  0  0  0  0  0  0  0
    2.8699    0.7901    0.0000 C   0  0  0  0  0  0  0  0  0  0  0  0
    3.1245    1.5746    0.0000 C   0  0  0  0  0  0  0  0  0  0  0  0
    2.5723    2.1876    0.0000 C   0  0  0  0  0  0  0  0  0  0  0  0
  1  2  2  0        0
  2  3  1  0        0
  3  4  2  0        0
  4  5  1  0        0
  5  6  2  0        0
  6  1  1  0        0
  4  7  1  0        0
  7  8  1  0        0
  8  9  2  0        0
  9  5  1  0        0
  9 10  1  0        0
 10 11  2  0        0
 11 12  1  0        0
 12 13  1  0        0
 13 14  2  0        0
 13 15  1  0        0
  7 16  1  0        0
 16 17  1  0        0
 17 18  1  0        0
 18 19  2  0        0
 19 20  1  0        0
 20 21  2  0        0
 21 22  1  0        0
 22 17  2  0        0
 16 23  2  0        0
 15 24  2  0        0
 24 25  1  0        0
 25 26  2  0        0
 26 27  1  0        0
 27 28  2  0        0
 28 15  1  0        0
M  END
$$$$
