18a.sdf
  ChemDraw10132515122D

 28 31  0  0  0  0  0  0  0  0999 V2000
   -3.1241    0.6823    0.0000 C   0  0  0  0  0  0  0  0  0  0  0  0
   -3.1241   -0.1427    0.0000 C   0  0  0  0  0  0  0  0  0  0  0  0
   -2.4097   -0.5552    0.0000 C   0  0  0  0  0  0  0  0  0  0  0  0
   -1.6953   -0.1427    0.0000 C   0  0  0  0  0  0  0  0  0  0  0  0
   -1.6953    0.6823    0.0000 C   0  0  0  0  0  0  0  0  0  0  0  0
   -2.4097    1.0948    0.0000 C   0  0  0  0  0  0  0  0  0  0  0  0
   -0.9104   -0.3976    0.0000 N   0  0  0  0  0  0  0  0  0  0  0  0
   -0.4257    0.2698    0.0000 C   0  0  0  0  0  0  0  0  0  0  0  0
   -0.9104    0.9373    0.0000 C   0  0  0  0  0  0  0  0  0  0  0  0
   -0.6554    1.7222    0.0000 C   0  0  0  0  0  0  0  0  0  0  0  0
    0.1513    1.8935    0.0000 N   0  0  0  0  0  0  0  0  0  0  0  0
   -0.6554   -1.1819    0.0000 C   0  0  0  0  0  0  0  0  0  0  0  0
   -1.2077   -1.7949    0.0000 C   0  0  0  0  0  0  0  0  0  0  0  0
   -2.0144   -1.6236    0.0000 C   0  0  0  0  0  0  0  0  0  0  0  0
   -2.5667   -2.2367    0.0000 C   0  0  0  0  0  0  0  0  0  0  0  0
   -2.3117   -3.0210    0.0000 C   0  0  0  0  0  0  0  0  0  0  0  0
   -1.5045   -3.1929    0.0000 C   0  0  0  0  0  0  0  0  0  0  0  0
   -0.9528   -2.5798    0.0000 C   0  0  0  0  0  0  0  0  0  0  0  0
    0.4062    2.6778    0.0000 N   0  0  0  0  0  0  0  0  0  0  0  0
    1.2134    2.8491    0.0000 C   0  0  0  0  0  0  0  0  0  0  0  0
    1.4684    3.6340    0.0000 O   0  0  0  0  0  0  0  0  0  0  0  0
    1.7652    2.2361    0.0000 C   0  0  0  0  0  0  0  0  0  0  0  0
    1.5102    1.4518    0.0000 C   0  0  0  0  0  0  0  0  0  0  0  0
    2.0619    0.8382    0.0000 C   0  0  0  0  0  0  0  0  0  0  0  0
    2.8692    1.0095    0.0000 C   0  0  0  0  0  0  0  0  0  0  0  0
    3.1241    1.7944    0.0000 C   0  0  0  0  0  0  0  0  0  0  0  0
    2.5724    2.4074    0.0000 C   0  0  0  0  0  0  0  0  0  0  0  0
   -2.8640   -3.6340    0.0000 Br  0  0  0  0  0  0  0  0  0  0  0  0
  1  2  2  0        0
  2  3  1  0        0
  3  4  2  0        0
  4  5  1  0        0
  5  6  2  0        0
  6  1  1  0        0
  4  7  1  0        0
  7  8  1  0        0
  8  9  2  0        0
  9  5  1  0        0
  9 10  1  0        0
 10 11  2  0        0
  7 12  1  0        0
 12 13  1  0        0
 13 14  2  0        0
 14 15  1  0        0
 15 16  2  0        0
 16 17  1  0        0
 17 18  2  0        0
 18 13  1  0        0
 11 19  1  0        0
 19 20  1  0        0
 20 21  2  0        0
 20 22  1  0        0
 22 23  1  0        0
 23 24  2  0        0
 24 25  1  0        0
 25 26  2  0        0
 26 27  1  0        0
 27 22  2  0        0
 16 28  1  0        0
M  END
$$$$
