21f.sdf
  ChemDraw10132515422D

 31 34  0  0  0  0  0  0  0  0999 V2000
   -3.4209    2.0307    0.0000 C   0  0  0  0  0  0  0  0  0  0  0  0
   -3.4209    1.2057    0.0000 C   0  0  0  0  0  0  0  0  0  0  0  0
   -2.7064    0.7932    0.0000 C   0  0  0  0  0  0  0  0  0  0  0  0
   -1.9920    1.2057    0.0000 C   0  0  0  0  0  0  0  0  0  0  0  0
   -1.9920    2.0307    0.0000 C   0  0  0  0  0  0  0  0  0  0  0  0
   -2.7064    2.4432    0.0000 C   0  0  0  0  0  0  0  0  0  0  0  0
   -1.2071    0.9508    0.0000 N   0  0  0  0  0  0  0  0  0  0  0  0
   -0.7223    1.6182    0.0000 C   0  0  0  0  0  0  0  0  0  0  0  0
   -1.2071    2.2857    0.0000 C   0  0  0  0  0  0  0  0  0  0  0  0
   -0.9522    3.0705    0.0000 C   0  0  0  0  0  0  0  0  0  0  0  0
   -0.1453    3.2418    0.0000 O   0  0  0  0  0  0  0  0  0  0  0  0
    0.4063    2.6289    0.0000 C   0  0  0  0  0  0  0  0  0  0  0  0
    1.2134    2.8002    0.0000 C   0  0  0  0  0  0  0  0  0  0  0  0
    1.7651    2.1872    0.0000 C   0  0  0  0  0  0  0  0  0  0  0  0
    1.4684    3.5850    0.0000 O   0  0  0  0  0  0  0  0  0  0  0  0
    1.5102    1.4021    0.0000 C   0  0  0  0  0  0  0  0  0  0  0  0
    2.0621    0.7891    0.0000 C   0  0  0  0  0  0  0  0  0  0  0  0
    2.8692    0.9604    0.0000 C   0  0  0  0  0  0  0  0  0  0  0  0
    3.1241    1.7453    0.0000 C   0  0  0  0  0  0  0  0  0  0  0  0
    2.5725    2.3585    0.0000 C   0  0  0  0  0  0  0  0  0  0  0  0
    3.4209    0.3475    0.0000 Br  0  0  0  0  0  0  0  0  0  0  0  0
   -0.9522    0.1665    0.0000 C   0  0  0  0  0  0  0  0  0  0  0  0
   -1.5038   -0.4465    0.0000 C   0  0  0  0  0  0  0  0  0  0  0  0
   -1.2489   -1.2316    0.0000 C   0  0  0  0  0  0  0  0  0  0  0  0
   -2.3110   -0.2754    0.0000 O   0  0  0  0  0  0  0  0  0  0  0  0
   -1.8006   -1.8446    0.0000 C   0  0  0  0  0  0  0  0  0  0  0  0
   -1.5456   -2.6294    0.0000 C   0  0  0  0  0  0  0  0  0  0  0  0
   -0.7385   -2.8007    0.0000 C   0  0  0  0  0  0  0  0  0  0  0  0
   -0.1866   -2.1872    0.0000 C   0  0  0  0  0  0  0  0  0  0  0  0
   -0.4418   -1.4029    0.0000 C   0  0  0  0  0  0  0  0  0  0  0  0
   -0.4836   -3.5850    0.0000 Br  0  0  0  0  0  0  0  0  0  0  0  0
  1  2  2  0        0
  2  3  1  0        0
  3  4  2  0        0
  4  5  1  0        0
  5  6  2  0        0
  6  1  1  0        0
  4  7  1  0        0
  7  8  1  0        0
  8  9  2  0        0
  9  5  1  0        0
  9 10  1  0        0
 10 11  1  0        0
 11 12  1  0        0
 12 13  1  0        0
 13 14  1  0        0
 13 15  2  0        0
 14 16  1  0        0
 16 17  2  0        0
 17 18  1  0        0
 18 19  2  0        0
 19 20  1  0        0
 20 14  2  0        0
 18 21  1  0        0
  7 22  1  0        0
 22 23  1  0        0
 23 24  1  0        0
 23 25  2  0        0
 24 26  1  0        0
 26 27  2  0        0
 27 28  1  0        0
 28 29  2  0        0
 29 30  1  0        0
 30 24  2  0        0
 28 31  1  0        0
M  END
$$$$
