5a.sdf
  ChemDraw10132515082D

 23 25  0  0  0  0  0  0  0  0999 V2000
   -2.2963    0.6826    0.0000 C   0  0  0  0  0  0  0  0  0  0  0  0
   -2.2963   -0.1424    0.0000 C   0  0  0  0  0  0  0  0  0  0  0  0
   -1.5818   -0.5549    0.0000 C   0  0  0  0  0  0  0  0  0  0  0  0
   -0.8674   -0.1424    0.0000 C   0  0  0  0  0  0  0  0  0  0  0  0
   -0.8674    0.6826    0.0000 C   0  0  0  0  0  0  0  0  0  0  0  0
   -1.5818    1.0951    0.0000 C   0  0  0  0  0  0  0  0  0  0  0  0
   -0.0825   -0.3973    0.0000 N   0  0  0  0  0  0  0  0  0  0  0  0
    0.4022    0.2701    0.0000 C   0  0  0  0  0  0  0  0  0  0  0  0
   -0.0825    0.9376    0.0000 C   0  0  0  0  0  0  0  0  0  0  0  0
    0.1724    1.7225    0.0000 C   0  0  0  0  0  0  0  0  0  0  0  0
    0.9791    1.8938    0.0000 C   0  0  0  0  0  0  0  0  0  0  0  0
    0.1724   -1.1816    0.0000 C   0  0  0  0  0  0  0  0  0  0  0  0
   -0.3798   -1.7947    0.0000 C   0  0  0  0  0  0  0  0  0  0  0  0
   -1.1865   -1.6234    0.0000 C   0  0  0  0  0  0  0  0  0  0  0  0
   -1.7388   -2.2364    0.0000 C   0  0  0  0  0  0  0  0  0  0  0  0
   -1.4839   -3.0213    0.0000 C   0  0  0  0  0  0  0  0  0  0  0  0
   -0.6766   -3.1926    0.0000 C   0  0  0  0  0  0  0  0  0  0  0  0
   -0.1249   -2.5796    0.0000 C   0  0  0  0  0  0  0  0  0  0  0  0
   -2.0356   -3.6343    0.0000 Br  0  0  0  0  0  0  0  0  0  0  0  0
    1.2341    2.6787    0.0000 C   0  0  0  0  0  0  0  0  0  0  0  0
    2.0413    2.8500    0.0000 O   0  0  0  0  0  0  0  0  0  0  0  0
    0.6823    3.2917    0.0000 O   0  0  0  0  0  0  0  0  0  0  0  0
    2.2963    3.6343    0.0000 C   0  0  0  0  0  0  0  0  0  0  0  0
  1  2  2  0        0
  2  3  1  0        0
  3  4  2  0        0
  4  5  1  0        0
  5  6  2  0        0
  6  1  1  0        0
  4  7  1  0        0
  7  8  1  0        0
  8  9  2  0        0
  9  5  1  0        0
  9 10  1  0        0
 10 11  2  0        0
  7 12  1  0        0
 12 13  1  0        0
 13 14  2  0        0
 14 15  1  0        0
 15 16  2  0        0
 16 17  1  0        0
 17 18  2  0        0
 18 13  1  0        0
 16 19  1  0        0
 11 20  1  0        0
 20 21  1  0        0
 20 22  2  0        0
 21 23  1  0        0
M  END
$$$$
