5.sdf
  ChemDraw10132515002D

 15 16  0  0  0  0  0  0  0  0999 V2000
   -2.2963   -0.8571    0.0000 C   0  0  0  0  0  0  0  0  0  0  0  0
   -2.2963   -1.6821    0.0000 C   0  0  0  0  0  0  0  0  0  0  0  0
   -1.5818   -2.0946    0.0000 C   0  0  0  0  0  0  0  0  0  0  0  0
   -0.8674   -1.6821    0.0000 C   0  0  0  0  0  0  0  0  0  0  0  0
   -0.8674   -0.8571    0.0000 C   0  0  0  0  0  0  0  0  0  0  0  0
   -1.5818   -0.4446    0.0000 C   0  0  0  0  0  0  0  0  0  0  0  0
   -0.0825   -1.9370    0.0000 N   0  0  0  0  0  0  0  0  0  0  0  0
    0.4022   -1.2696    0.0000 C   0  0  0  0  0  0  0  0  0  0  0  0
   -0.0825   -0.6021    0.0000 C   0  0  0  0  0  0  0  0  0  0  0  0
    0.1724    0.1828    0.0000 C   0  0  0  0  0  0  0  0  0  0  0  0
    0.9791    0.3541    0.0000 C   0  0  0  0  0  0  0  0  0  0  0  0
    1.2341    1.1390    0.0000 C   0  0  0  0  0  0  0  0  0  0  0  0
    2.0413    1.3103    0.0000 O   0  0  0  0  0  0  0  0  0  0  0  0
    0.6823    1.7520    0.0000 O   0  0  0  0  0  0  0  0  0  0  0  0
    2.2963    2.0946    0.0000 C   0  0  0  0  0  0  0  0  0  0  0  0
  1  2  2  0        0
  2  3  1  0        0
  3  4  2  0        0
  4  5  1  0        0
  5  6  2  0        0
  6  1  1  0        0
  4  7  1  0        0
  7  8  1  0        0
  8  9  2  0        0
  9  5  1  0        0
  9 10  1  0        0
 10 11  2  0        0
 11 12  1  0        0
 12 13  1  0        0
 12 14  2  0        0
 13 15  1  0        0
M  END
$$$$
