12.sdf
  ChemDraw10132514592D

 13 14  0  0  0  0  0  0  0  0999 V2000
   -1.9138   -0.3793    0.0000 C   0  0  0  0  0  0  0  0  0  0  0  0
   -1.9138   -1.2043    0.0000 C   0  0  0  0  0  0  0  0  0  0  0  0
   -1.1994   -1.6168    0.0000 C   0  0  0  0  0  0  0  0  0  0  0  0
   -0.4850   -1.2043    0.0000 C   0  0  0  0  0  0  0  0  0  0  0  0
   -0.4850   -0.3793    0.0000 C   0  0  0  0  0  0  0  0  0  0  0  0
   -1.1994    0.0332    0.0000 C   0  0  0  0  0  0  0  0  0  0  0  0
    0.2999   -1.4592    0.0000 N   0  0  0  0  0  0  0  0  0  0  0  0
    0.7846   -0.7918    0.0000 C   0  0  0  0  0  0  0  0  0  0  0  0
    0.2999   -0.1243    0.0000 C   0  0  0  0  0  0  0  0  0  0  0  0
    0.5549    0.6606    0.0000 C   0  0  0  0  0  0  0  0  0  0  0  0
    1.3615    0.8319    0.0000 C   0  0  0  0  0  0  0  0  0  0  0  0
    1.9138    0.2189    0.0000 O   0  0  0  0  0  0  0  0  0  0  0  0
    1.6171    1.6168    0.0000 O   0  0  0  0  0  0  0  0  0  0  0  0
  1  2  2  0        0
  2  3  1  0        0
  3  4  2  0        0
  4  5  1  0        0
  5  6  2  0        0
  6  1  1  0        0
  4  7  1  0        0
  7  8  1  0        0
  8  9  2  0        0
  9  5  1  0        0
  9 10  1  0        0
 10 11  1  0        0
 11 12  2  0        0
 11 13  1  0        0
M  END
$$$$
