3.sdf
  ChemDraw10132515002D

 15 16  0  0  1  0  0  0  0  0999 V2000
   -2.1688   -0.6858    0.0000 C   0  0  0  0  0  0  0  0  0  0  0  0
   -2.1688   -1.5108    0.0000 C   0  0  0  0  0  0  0  0  0  0  0  0
   -1.4544   -1.9233    0.0000 C   0  0  0  0  0  0  0  0  0  0  0  0
   -0.7399   -1.5108    0.0000 C   0  0  0  0  0  0  0  0  0  0  0  0
   -0.7399   -0.6858    0.0000 C   0  0  0  0  0  0  0  0  0  0  0  0
   -1.4544   -0.2733    0.0000 C   0  0  0  0  0  0  0  0  0  0  0  0
    0.0450   -1.7657    0.0000 N   0  0  0  0  0  0  0  0  0  0  0  0
    0.5297   -1.0983    0.0000 C   0  0  0  0  0  0  0  0  0  0  0  0
    0.0450   -0.4308    0.0000 C   0  0  0  0  0  0  0  0  0  0  0  0
    0.2999    0.3541    0.0000 C   0  0  0  0  0  0  0  0  0  0  0  0
    1.1066    0.5254    0.0000 C   0  0  0  0  0  0  0  0  0  0  0  0
    1.3615    1.3103    0.0000 C   0  0  0  0  0  0  0  0  0  0  0  0
    2.1688    1.4816    0.0000 O   0  0  0  0  0  0  0  0  0  0  0  0
    0.8098    1.9233    0.0000 O   0  0  0  0  0  0  0  0  0  0  0  0
    1.6589   -0.0877    0.0000 N   0  0  0  0  0  0  0  0  0  0  0  0
  1  2  2  0        0
  2  3  1  0        0
  3  4  2  0        0
  4  5  1  0        0
  5  6  2  0        0
  6  1  1  0        0
  4  7  1  0        0
  7  8  1  0        0
  8  9  2  0        0
  9  5  1  0        0
  9 10  1  0        0
 10 11  1  0        0
 11 12  1  0        0
 12 13  1  0        0
 12 14  2  0        0
 11 15  1  1        0
M  END
$$$$
