21.sdf
  ChemDraw10132514592D

 21 23  0  0  0  0  0  0  0  0999 V2000
   -3.4212    0.0650    0.0000 C   0  0  0  0  0  0  0  0  0  0  0  0
   -3.4212   -0.7600    0.0000 C   0  0  0  0  0  0  0  0  0  0  0  0
   -2.7067   -1.1725    0.0000 C   0  0  0  0  0  0  0  0  0  0  0  0
   -1.9923   -0.7600    0.0000 C   0  0  0  0  0  0  0  0  0  0  0  0
   -1.9923    0.0650    0.0000 C   0  0  0  0  0  0  0  0  0  0  0  0
   -2.7067    0.4775    0.0000 C   0  0  0  0  0  0  0  0  0  0  0  0
   -1.2074   -1.0149    0.0000 N   0  0  0  0  0  0  0  0  0  0  0  0
   -0.7227   -0.3475    0.0000 C   0  0  0  0  0  0  0  0  0  0  0  0
   -1.2074    0.3200    0.0000 C   0  0  0  0  0  0  0  0  0  0  0  0
   -0.9525    1.1049    0.0000 C   0  0  0  0  0  0  0  0  0  0  0  0
   -0.1458    1.2762    0.0000 O   0  0  0  0  0  0  0  0  0  0  0  0
    0.4065    0.6626    0.0000 C   0  0  0  0  0  0  0  0  0  0  0  0
    1.2132    0.8339    0.0000 C   0  0  0  0  0  0  0  0  0  0  0  0
    1.7654    0.2209    0.0000 C   0  0  0  0  0  0  0  0  0  0  0  0
    1.4687    1.6188    0.0000 O   0  0  0  0  0  0  0  0  0  0  0  0
    1.5099   -0.5635    0.0000 C   0  0  0  0  0  0  0  0  0  0  0  0
    2.0622   -1.1771    0.0000 C   0  0  0  0  0  0  0  0  0  0  0  0
    2.8689   -1.0058    0.0000 C   0  0  0  0  0  0  0  0  0  0  0  0
    3.1244   -0.2209    0.0000 C   0  0  0  0  0  0  0  0  0  0  0  0
    2.5721    0.3922    0.0000 C   0  0  0  0  0  0  0  0  0  0  0  0
    3.4212   -1.6188    0.0000 Br  0  0  0  0  0  0  0  0  0  0  0  0
  1  2  2  0        0
  2  3  1  0        0
  3  4  2  0        0
  4  5  1  0        0
  5  6  2  0        0
  6  1  1  0        0
  4  7  1  0        0
  7  8  1  0        0
  8  9  2  0        0
  9  5  1  0        0
  9 10  1  0        0
 10 11  1  0        0
 11 12  1  0        0
 12 13  1  0        0
 13 14  1  0        0
 13 15  2  0        0
 14 16  1  0        0
 16 17  2  0        0
 17 18  1  0        0
 18 19  2  0        0
 19 20  1  0        0
 20 14  2  0        0
 18 21  1  0        0
M  END
$$$$
