17h.sdf
  ChemDraw10132515432D

 26 28  0  0  0  0  0  0  0  0999 V2000
   -2.4449    1.1610    0.0000 C   0  0  0  0  0  0  0  0  0  0  0  0
   -2.4449    0.3360    0.0000 C   0  0  0  0  0  0  0  0  0  0  0  0
   -1.7304   -0.0765    0.0000 C   0  0  0  0  0  0  0  0  0  0  0  0
   -1.0160    0.3360    0.0000 C   0  0  0  0  0  0  0  0  0  0  0  0
   -1.0160    1.1610    0.0000 C   0  0  0  0  0  0  0  0  0  0  0  0
   -1.7304    1.5735    0.0000 C   0  0  0  0  0  0  0  0  0  0  0  0
   -0.2311    0.0811    0.0000 N   0  0  0  0  0  0  0  0  0  0  0  0
    0.2537    0.7485    0.0000 C   0  0  0  0  0  0  0  0  0  0  0  0
   -0.2311    1.4160    0.0000 C   0  0  0  0  0  0  0  0  0  0  0  0
    0.0238    2.2008    0.0000 C   0  0  0  0  0  0  0  0  0  0  0  0
    0.8304    2.3721    0.0000 N   0  0  0  0  0  0  0  0  0  0  0  0
    1.0861    3.1565    0.0000 N   0  0  0  0  0  0  0  0  0  0  0  0
    1.8927    3.3278    0.0000 C   0  0  0  0  0  0  0  0  0  0  0  0
    2.1476    4.1126    0.0000 O   0  0  0  0  0  0  0  0  0  0  0  0
    2.4449    2.7148    0.0000 N   0  0  0  0  0  0  0  0  0  0  0  0
    0.0243   -0.7040    0.0000 C   0  0  0  0  0  0  0  0  0  0  0  0
   -0.5279   -1.3170    0.0000 C   0  0  0  0  0  0  0  0  0  0  0  0
   -1.3344   -1.1456    0.0000 C   0  0  0  0  0  0  0  0  0  0  0  0
   -1.8869   -1.7586    0.0000 C   0  0  0  0  0  0  0  0  0  0  0  0
   -1.6314   -2.5429    0.0000 C   0  0  0  0  0  0  0  0  0  0  0  0
   -0.8246   -2.7148    0.0000 C   0  0  0  0  0  0  0  0  0  0  0  0
   -0.2724   -2.1013    0.0000 C   0  0  0  0  0  0  0  0  0  0  0  0
   -2.1834   -3.1562    0.0000 O   0  0  0  0  0  0  0  0  0  0  0  0
   -0.5699   -3.4994    0.0000 O   0  0  0  0  0  0  0  0  0  0  0  0
   -1.9282   -3.9408    0.0000 C   0  0  0  0  0  0  0  0  0  0  0  0
   -1.1219   -4.1126    0.0000 C   0  0  0  0  0  0  0  0  0  0  0  0
  1  2  2  0        0
  2  3  1  0        0
  3  4  2  0        0
  4  5  1  0        0
  5  6  2  0        0
  6  1  1  0        0
  4  7  1  0        0
  7  8  1  0        0
  8  9  2  0        0
  9  5  1  0        0
  9 10  1  0        0
 10 11  2  0        0
 11 12  1  0        0
 12 13  1  0        0
 13 14  2  0        0
 13 15  1  0        0
  7 16  1  0        0
 16 17  1  0        0
 17 18  1  0        0
 18 19  2  0        0
 19 20  1  0        0
 20 21  2  0        0
 21 22  1  0        0
 22 17  2  0        0
 20 23  1  0        0
 21 24  1  0        0
 23 25  1  0        0
 24 26  1  0        0
M  END
$$$$
