17j.sdf
  ChemDraw10132515452D

 26 28  0  0  0  0  0  0  0  0999 V2000
   -2.0444    1.1610    0.0000 C   0  0  0  0  0  0  0  0  0  0  0  0
   -2.0444    0.3360    0.0000 C   0  0  0  0  0  0  0  0  0  0  0  0
   -1.3299   -0.0765    0.0000 C   0  0  0  0  0  0  0  0  0  0  0  0
   -0.6155    0.3360    0.0000 C   0  0  0  0  0  0  0  0  0  0  0  0
   -0.6155    1.1610    0.0000 C   0  0  0  0  0  0  0  0  0  0  0  0
   -1.3299    1.5735    0.0000 C   0  0  0  0  0  0  0  0  0  0  0  0
    0.1694    0.0811    0.0000 N   0  0  0  0  0  0  0  0  0  0  0  0
    0.6539    0.7485    0.0000 C   0  0  0  0  0  0  0  0  0  0  0  0
    0.1694    1.4160    0.0000 C   0  0  0  0  0  0  0  0  0  0  0  0
    0.4243    2.2008    0.0000 C   0  0  0  0  0  0  0  0  0  0  0  0
    1.2309    2.3722    0.0000 N   0  0  0  0  0  0  0  0  0  0  0  0
    1.4864    3.1564    0.0000 N   0  0  0  0  0  0  0  0  0  0  0  0
    2.2932    3.3278    0.0000 C   0  0  0  0  0  0  0  0  0  0  0  0
    2.5481    4.1126    0.0000 O   0  0  0  0  0  0  0  0  0  0  0  0
    2.8454    2.7148    0.0000 N   0  0  0  0  0  0  0  0  0  0  0  0
    0.4249   -0.7040    0.0000 C   0  0  0  0  0  0  0  0  0  0  0  0
   -0.1273   -1.3170    0.0000 C   0  0  0  0  0  0  0  0  0  0  0  0
   -0.9342   -1.1456    0.0000 C   0  0  0  0  0  0  0  0  0  0  0  0
   -1.4864   -1.7586    0.0000 C   0  0  0  0  0  0  0  0  0  0  0  0
   -1.2309   -2.5429    0.0000 C   0  0  0  0  0  0  0  0  0  0  0  0
   -0.4243   -2.7148    0.0000 C   0  0  0  0  0  0  0  0  0  0  0  0
    0.1281   -2.1013    0.0000 C   0  0  0  0  0  0  0  0  0  0  0  0
   -2.2935   -1.5873    0.0000 O   0  0  0  0  0  0  0  0  0  0  0  0
   -2.8454   -2.2006    0.0000 C   0  0  0  0  0  0  0  0  0  0  0  0
   -0.1694   -3.4994    0.0000 O   0  0  0  0  0  0  0  0  0  0  0  0
   -0.7216   -4.1126    0.0000 C   0  0  0  0  0  0  0  0  0  0  0  0
  1  2  2  0        0
  2  3  1  0        0
  3  4  2  0        0
  4  5  1  0        0
  5  6  2  0        0
  6  1  1  0        0
  4  7  1  0        0
  7  8  1  0        0
  8  9  2  0        0
  9  5  1  0        0
  9 10  1  0        0
 10 11  2  0        0
 11 12  1  0        0
 12 13  1  0        0
 13 14  2  0        0
 13 15  1  0        0
  7 16  1  0        0
 16 17  1  0        0
 17 18  1  0        0
 18 19  2  0        0
 19 20  1  0        0
 20 21  2  0        0
 21 22  1  0        0
 22 17  2  0        0
 19 23  1  0        0
 23 24  1  0        0
 21 25  1  0        0
 25 26  1  0        0
M  END
$$$$
