8.sdf
  ChemDraw10132515002D

 21 23  0  0  0  0  0  0  0  0999 V2000
   -3.2728   -0.8571    0.0000 C   0  0  0  0  0  0  0  0  0  0  0  0
   -3.2728   -1.6821    0.0000 C   0  0  0  0  0  0  0  0  0  0  0  0
   -2.5584   -2.0946    0.0000 C   0  0  0  0  0  0  0  0  0  0  0  0
   -1.8439   -1.6821    0.0000 C   0  0  0  0  0  0  0  0  0  0  0  0
   -1.8439   -0.8571    0.0000 C   0  0  0  0  0  0  0  0  0  0  0  0
   -2.5584   -0.4446    0.0000 C   0  0  0  0  0  0  0  0  0  0  0  0
   -1.0590   -1.9370    0.0000 N   0  0  0  0  0  0  0  0  0  0  0  0
   -0.5743   -1.2696    0.0000 C   0  0  0  0  0  0  0  0  0  0  0  0
   -1.0590   -0.6021    0.0000 C   0  0  0  0  0  0  0  0  0  0  0  0
   -0.8041    0.1828    0.0000 C   0  0  0  0  0  0  0  0  0  0  0  0
    0.0026    0.3541    0.0000 N   0  0  0  0  0  0  0  0  0  0  0  0
    0.2581    1.1384    0.0000 N   0  0  0  0  0  0  0  0  0  0  0  0
    1.0648    1.3097    0.0000 C   0  0  0  0  0  0  0  0  0  0  0  0
    1.3197    2.0946    0.0000 O   0  0  0  0  0  0  0  0  0  0  0  0
    1.6171    0.6967    0.0000 C   0  0  0  0  0  0  0  0  0  0  0  0
    1.3615   -0.0877    0.0000 C   0  0  0  0  0  0  0  0  0  0  0  0
    1.9138   -0.7013    0.0000 C   0  0  0  0  0  0  0  0  0  0  0  0
    2.7205   -0.5299    0.0000 C   0  0  0  0  0  0  0  0  0  0  0  0
    2.9760    0.2549    0.0000 C   0  0  0  0  0  0  0  0  0  0  0  0
    2.4237    0.8680    0.0000 C   0  0  0  0  0  0  0  0  0  0  0  0
    3.2728   -1.1430    0.0000 Br  0  0  0  0  0  0  0  0  0  0  0  0
  1  2  2  0        0
  2  3  1  0        0
  3  4  2  0        0
  4  5  1  0        0
  5  6  2  0        0
  6  1  1  0        0
  4  7  1  0        0
  7  8  1  0        0
  8  9  2  0        0
  9  5  1  0        0
  9 10  1  0        0
 10 11  2  0        0
 11 12  1  0        0
 12 13  1  0        0
 13 14  2  0        0
 13 15  1  0        0
 15 16  2  0        0
 16 17  1  0        0
 17 18  2  0        0
 18 19  1  0        0
 19 20  2  0        0
 20 15  1  0        0
 18 21  1  0        0
M  END
$$$$
