17g.sdf
  ChemDraw10132515432D

 24 26  0  0  0  0  0  0  0  0999 V2000
   -2.4449    1.0748    0.0000 C   0  0  0  0  0  0  0  0  0  0  0  0
   -2.4449    0.2498    0.0000 C   0  0  0  0  0  0  0  0  0  0  0  0
   -1.7304   -0.1627    0.0000 C   0  0  0  0  0  0  0  0  0  0  0  0
   -1.0160    0.2498    0.0000 C   0  0  0  0  0  0  0  0  0  0  0  0
   -1.0160    1.0748    0.0000 C   0  0  0  0  0  0  0  0  0  0  0  0
   -1.7304    1.4873    0.0000 C   0  0  0  0  0  0  0  0  0  0  0  0
   -0.2311   -0.0051    0.0000 N   0  0  0  0  0  0  0  0  0  0  0  0
    0.2537    0.6623    0.0000 C   0  0  0  0  0  0  0  0  0  0  0  0
   -0.2311    1.3298    0.0000 C   0  0  0  0  0  0  0  0  0  0  0  0
    0.0238    2.1149    0.0000 C   0  0  0  0  0  0  0  0  0  0  0  0
    0.8304    2.2862    0.0000 N   0  0  0  0  0  0  0  0  0  0  0  0
    1.0861    3.0705    0.0000 N   0  0  0  0  0  0  0  0  0  0  0  0
    1.8927    3.2418    0.0000 C   0  0  0  0  0  0  0  0  0  0  0  0
    2.1476    4.0267    0.0000 O   0  0  0  0  0  0  0  0  0  0  0  0
    2.4449    2.6286    0.0000 N   0  0  0  0  0  0  0  0  0  0  0  0
    0.0243   -0.7899    0.0000 C   0  0  0  0  0  0  0  0  0  0  0  0
   -0.5279   -1.4029    0.0000 C   0  0  0  0  0  0  0  0  0  0  0  0
   -1.3344   -1.2316    0.0000 C   0  0  0  0  0  0  0  0  0  0  0  0
   -1.8869   -1.8446    0.0000 C   0  0  0  0  0  0  0  0  0  0  0  0
   -1.6314   -2.6289    0.0000 C   0  0  0  0  0  0  0  0  0  0  0  0
   -0.8246   -2.8007    0.0000 C   0  0  0  0  0  0  0  0  0  0  0  0
   -0.2724   -2.1872    0.0000 C   0  0  0  0  0  0  0  0  0  0  0  0
   -2.1834   -3.2421    0.0000 O   0  0  0  0  0  0  0  0  0  0  0  0
   -1.9282   -4.0267    0.0000 C   0  0  0  0  0  0  0  0  0  0  0  0
  1  2  2  0        0
  2  3  1  0        0
  3  4  2  0        0
  4  5  1  0        0
  5  6  2  0        0
  6  1  1  0        0
  4  7  1  0        0
  7  8  1  0        0
  8  9  2  0        0
  9  5  1  0        0
  9 10  1  0        0
 10 11  2  0        0
 11 12  1  0        0
 12 13  1  0        0
 13 14  2  0        0
 13 15  1  0        0
  7 16  1  0        0
 16 17  1  0        0
 17 18  1  0        0
 18 19  2  0        0
 19 20  1  0        0
 20 21  2  0        0
 21 22  1  0        0
 22 17  2  0        0
 20 23  1  0        0
 23 24  1  0        0
M  END
$$$$
