7b.sdf
  ChemDraw10132515322D

 21 23  0  0  0  0  0  0  0  0999 V2000
   -1.9139    0.6335    0.0000 C   0  0  0  0  0  0  0  0  0  0  0  0
   -1.9139   -0.1915    0.0000 C   0  0  0  0  0  0  0  0  0  0  0  0
   -1.1994   -0.6040    0.0000 C   0  0  0  0  0  0  0  0  0  0  0  0
   -0.4850   -0.1915    0.0000 C   0  0  0  0  0  0  0  0  0  0  0  0
   -0.4850    0.6335    0.0000 C   0  0  0  0  0  0  0  0  0  0  0  0
   -1.1994    1.0460    0.0000 C   0  0  0  0  0  0  0  0  0  0  0  0
    0.2999   -0.4465    0.0000 N   0  0  0  0  0  0  0  0  0  0  0  0
    0.7847    0.2210    0.0000 C   0  0  0  0  0  0  0  0  0  0  0  0
    0.2999    0.8884    0.0000 C   0  0  0  0  0  0  0  0  0  0  0  0
    0.5548    1.6732    0.0000 C   0  0  0  0  0  0  0  0  0  0  0  0
    1.3617    1.8446    0.0000 C   0  0  0  0  0  0  0  0  0  0  0  0
    0.5548   -1.2310    0.0000 C   0  0  0  0  0  0  0  0  0  0  0  0
    0.0026   -1.8440    0.0000 C   0  0  0  0  0  0  0  0  0  0  0  0
   -0.8040   -1.6727    0.0000 C   0  0  0  0  0  0  0  0  0  0  0  0
   -1.3564   -2.2857    0.0000 C   0  0  0  0  0  0  0  0  0  0  0  0
   -1.1015   -3.0705    0.0000 N   0  0  0  0  0  0  0  0  0  0  0  0
   -0.2941   -3.2418    0.0000 C   0  0  0  0  0  0  0  0  0  0  0  0
    0.2575   -2.6289    0.0000 C   0  0  0  0  0  0  0  0  0  0  0  0
    1.9139    1.2316    0.0000 O   0  0  0  0  0  0  0  0  0  0  0  0
    1.6166    2.6289    0.0000 O   0  0  0  0  0  0  0  0  0  0  0  0
    1.0647    3.2418    0.0000 C   0  0  0  0  0  0  0  0  0  0  0  0
  1  2  2  0        0
  2  3  1  0        0
  3  4  2  0        0
  4  5  1  0        0
  5  6  2  0        0
  6  1  1  0        0
  4  7  1  0        0
  7  8  1  0        0
  8  9  2  0        0
  9  5  1  0        0
  9 10  1  0        0
 10 11  1  0        0
  7 12  1  0        0
 12 13  1  0        0
 13 14  2  0        0
 14 15  1  0        0
 15 16  2  0        0
 16 17  1  0        0
 17 18  2  0        0
 18 13  1  0        0
 11 19  2  0        0
 11 20  1  0        0
 20 21  1  0        0
M  END
$$$$
