9a.sdf
  ChemDraw10132515092D

 27 30  0  0  0  0  0  0  0  0999 V2000
   -2.9757    0.5961    0.0000 C   0  0  0  0  0  0  0  0  0  0  0  0
   -2.9757   -0.2289    0.0000 C   0  0  0  0  0  0  0  0  0  0  0  0
   -2.2613   -0.6414    0.0000 C   0  0  0  0  0  0  0  0  0  0  0  0
   -1.5469   -0.2289    0.0000 C   0  0  0  0  0  0  0  0  0  0  0  0
   -1.5469    0.5961    0.0000 C   0  0  0  0  0  0  0  0  0  0  0  0
   -2.2613    1.0086    0.0000 C   0  0  0  0  0  0  0  0  0  0  0  0
   -0.7620   -0.4838    0.0000 N   0  0  0  0  0  0  0  0  0  0  0  0
   -0.2773    0.1836    0.0000 C   0  0  0  0  0  0  0  0  0  0  0  0
   -0.7620    0.8511    0.0000 C   0  0  0  0  0  0  0  0  0  0  0  0
   -0.5070    1.6360    0.0000 C   0  0  0  0  0  0  0  0  0  0  0  0
   -0.5070   -1.2682    0.0000 C   0  0  0  0  0  0  0  0  0  0  0  0
   -1.0593   -1.8812    0.0000 C   0  0  0  0  0  0  0  0  0  0  0  0
   -1.8660   -1.7099    0.0000 C   0  0  0  0  0  0  0  0  0  0  0  0
   -2.4183   -2.3229    0.0000 C   0  0  0  0  0  0  0  0  0  0  0  0
   -2.1633   -3.1078    0.0000 C   0  0  0  0  0  0  0  0  0  0  0  0
   -1.3561   -3.2791    0.0000 C   0  0  0  0  0  0  0  0  0  0  0  0
   -0.8044   -2.6661    0.0000 C   0  0  0  0  0  0  0  0  0  0  0  0
   -2.7151   -3.7208    0.0000 Br  0  0  0  0  0  0  0  0  0  0  0  0
    0.3002    1.8078    0.0000 C   0  0  0  0  0  0  0  0  0  0  0  0
    0.5552    2.5922    0.0000 C   0  0  0  0  0  0  0  0  0  0  0  0
    1.3618    2.7640    0.0000 C   0  0  0  0  0  0  0  0  0  0  0  0
    0.0029    3.2058    0.0000 O   0  0  0  0  0  0  0  0  0  0  0  0
    1.9141    2.1510    0.0000 C   0  0  0  0  0  0  0  0  0  0  0  0
    2.7208    2.3229    0.0000 C   0  0  0  0  0  0  0  0  0  0  0  0
    2.9757    3.1078    0.0000 C   0  0  0  0  0  0  0  0  0  0  0  0
    2.4234    3.7208    0.0000 C   0  0  0  0  0  0  0  0  0  0  0  0
    1.6162    3.5489    0.0000 C   0  0  0  0  0  0  0  0  0  0  0  0
  1  2  2  0        0
  2  3  1  0        0
  3  4  2  0        0
  4  5  1  0        0
  5  6  2  0        0
  6  1  1  0        0
  4  7  1  0        0
  7  8  1  0        0
  8  9  2  0        0
  9  5  1  0        0
  9 10  1  0        0
  7 11  1  0        0
 11 12  1  0        0
 12 13  2  0        0
 13 14  1  0        0
 14 15  2  0        0
 15 16  1  0        0
 16 17  2  0        0
 17 12  1  0        0
 15 18  1  0        0
 10 19  2  0        0
 19 20  1  0        0
 20 21  1  0        0
 20 22  2  0        0
 21 23  1  0        0
 23 24  2  0        0
 24 25  1  0        0
 25 26  2  0        0
 26 27  1  0        0
 27 21  2  0        0
M  END
$$$$
