17k.sdf
  ChemDraw10132515452D

 28 30  0  0  0  0  0  0  0  0999 V2000
   -2.0445    1.1609    0.0000 C   0  0  0  0  0  0  0  0  0  0  0  0
   -2.0445    0.3359    0.0000 C   0  0  0  0  0  0  0  0  0  0  0  0
   -1.3300   -0.0766    0.0000 C   0  0  0  0  0  0  0  0  0  0  0  0
   -0.6156    0.3359    0.0000 C   0  0  0  0  0  0  0  0  0  0  0  0
   -0.6156    1.1609    0.0000 C   0  0  0  0  0  0  0  0  0  0  0  0
   -1.3300    1.5734    0.0000 C   0  0  0  0  0  0  0  0  0  0  0  0
    0.1693    0.0810    0.0000 N   0  0  0  0  0  0  0  0  0  0  0  0
    0.6538    0.7484    0.0000 C   0  0  0  0  0  0  0  0  0  0  0  0
    0.1693    1.4158    0.0000 C   0  0  0  0  0  0  0  0  0  0  0  0
    0.4242    2.2007    0.0000 C   0  0  0  0  0  0  0  0  0  0  0  0
    1.2308    2.3720    0.0000 N   0  0  0  0  0  0  0  0  0  0  0  0
    1.4862    3.1563    0.0000 N   0  0  0  0  0  0  0  0  0  0  0  0
    2.2931    3.3276    0.0000 C   0  0  0  0  0  0  0  0  0  0  0  0
    2.5480    4.1125    0.0000 O   0  0  0  0  0  0  0  0  0  0  0  0
    2.8453    2.7147    0.0000 N   0  0  0  0  0  0  0  0  0  0  0  0
    0.4247   -0.7039    0.0000 C   0  0  0  0  0  0  0  0  0  0  0  0
   -0.1275   -1.3171    0.0000 C   0  0  0  0  0  0  0  0  0  0  0  0
   -0.9343   -1.1458    0.0000 C   0  0  0  0  0  0  0  0  0  0  0  0
   -1.4865   -1.7588    0.0000 C   0  0  0  0  0  0  0  0  0  0  0  0
   -1.2310   -2.5431    0.0000 C   0  0  0  0  0  0  0  0  0  0  0  0
   -0.4242   -2.7149    0.0000 C   0  0  0  0  0  0  0  0  0  0  0  0
    0.1280   -2.1014    0.0000 C   0  0  0  0  0  0  0  0  0  0  0  0
   -2.2936   -1.5874    0.0000 O   0  0  0  0  0  0  0  0  0  0  0  0
   -2.8453   -2.2007    0.0000 C   0  0  0  0  0  0  0  0  0  0  0  0
   -0.1695   -3.4995    0.0000 O   0  0  0  0  0  0  0  0  0  0  0  0
   -0.7217   -4.1125    0.0000 C   0  0  0  0  0  0  0  0  0  0  0  0
   -1.7830   -3.1563    0.0000 O   0  0  0  0  0  0  0  0  0  0  0  0
   -1.5278   -3.9409    0.0000 C   0  0  0  0  0  0  0  0  0  0  0  0
  1  2  2  0        0
  2  3  1  0        0
  3  4  2  0        0
  4  5  1  0        0
  5  6  2  0        0
  6  1  1  0        0
  4  7  1  0        0
  7  8  1  0        0
  8  9  2  0        0
  9  5  1  0        0
  9 10  1  0        0
 10 11  2  0        0
 11 12  1  0        0
 12 13  1  0        0
 13 14  2  0        0
 13 15  1  0        0
  7 16  1  0        0
 16 17  1  0        0
 17 18  1  0        0
 18 19  2  0        0
 19 20  1  0        0
 20 21  2  0        0
 21 22  1  0        0
 22 17  2  0        0
 19 23  1  0        0
 23 24  1  0        0
 21 25  1  0        0
 25 26  1  0        0
 20 27  1  0        0
 27 28  1  0        0
M  END
$$$$
