1d.sdf
  ChemDraw10132515332D

 20 22  0  0  0  0  0  0  0  0999 V2000
   -1.6378    1.1113    0.0000 C   0  0  0  0  0  0  0  0  0  0  0  0
   -1.6378    0.2863    0.0000 C   0  0  0  0  0  0  0  0  0  0  0  0
   -0.9233   -0.1262    0.0000 C   0  0  0  0  0  0  0  0  0  0  0  0
   -0.2089    0.2863    0.0000 C   0  0  0  0  0  0  0  0  0  0  0  0
   -0.2089    1.1113    0.0000 C   0  0  0  0  0  0  0  0  0  0  0  0
   -0.9233    1.5238    0.0000 C   0  0  0  0  0  0  0  0  0  0  0  0
    0.5760    0.0314    0.0000 N   0  0  0  0  0  0  0  0  0  0  0  0
    1.0608    0.6988    0.0000 C   0  0  0  0  0  0  0  0  0  0  0  0
    0.5760    1.3662    0.0000 C   0  0  0  0  0  0  0  0  0  0  0  0
    0.8309    2.1511    0.0000 C   0  0  0  0  0  0  0  0  0  0  0  0
    0.2787    2.7640    0.0000 H   0  0  0  0  0  0  0  0  0  0  0  0
    1.6378    2.3224    0.0000 O   0  0  0  0  0  0  0  0  0  0  0  0
    0.8309   -0.7529    0.0000 C   0  0  0  0  0  0  0  0  0  0  0  0
    0.2787   -1.3662    0.0000 C   0  0  0  0  0  0  0  0  0  0  0  0
   -0.5284   -1.1949    0.0000 C   0  0  0  0  0  0  0  0  0  0  0  0
   -1.0803   -1.8078    0.0000 C   0  0  0  0  0  0  0  0  0  0  0  0
   -0.8254   -2.5921    0.0000 C   0  0  0  0  0  0  0  0  0  0  0  0
   -0.0186   -2.7640    0.0000 C   0  0  0  0  0  0  0  0  0  0  0  0
    0.5336   -2.1511    0.0000 C   0  0  0  0  0  0  0  0  0  0  0  0
    1.6378   -0.9243    0.0000 O   0  0  0  0  0  0  0  0  0  0  0  0
  1  2  2  0        0
  2  3  1  0        0
  3  4  2  0        0
  4  5  1  0        0
  5  6  2  0        0
  6  1  1  0        0
  4  7  1  0        0
  7  8  1  0        0
  8  9  2  0        0
  9  5  1  0        0
  9 10  1  0        0
 10 11  1  0        0
 10 12  2  0        0
  7 13  1  0        0
 13 14  1  0        0
 14 15  2  0        0
 15 16  1  0        0
 16 17  2  0        0
 17 18  1  0        0
 18 19  2  0        0
 19 14  1  0        0
 13 20  2  0        0
M  END
$$$$
