20.sdf
  ChemDraw10132514592D

 20 22  0  0  0  0  0  0  0  0999 V2000
   -3.2728    0.0152    0.0000 C   0  0  0  0  0  0  0  0  0  0  0  0
   -3.2728   -0.8098    0.0000 C   0  0  0  0  0  0  0  0  0  0  0  0
   -2.5584   -1.2223    0.0000 C   0  0  0  0  0  0  0  0  0  0  0  0
   -1.8439   -0.8098    0.0000 C   0  0  0  0  0  0  0  0  0  0  0  0
   -1.8439    0.0152    0.0000 C   0  0  0  0  0  0  0  0  0  0  0  0
   -2.5584    0.4277    0.0000 C   0  0  0  0  0  0  0  0  0  0  0  0
   -1.0590   -1.0648    0.0000 N   0  0  0  0  0  0  0  0  0  0  0  0
   -0.5743   -0.3973    0.0000 C   0  0  0  0  0  0  0  0  0  0  0  0
   -1.0590    0.2701    0.0000 C   0  0  0  0  0  0  0  0  0  0  0  0
   -0.8041    1.0550    0.0000 C   0  0  0  0  0  0  0  0  0  0  0  0
    0.0026    1.2263    0.0000 O   0  0  0  0  0  0  0  0  0  0  0  0
    0.5549    0.6127    0.0000 C   0  0  0  0  0  0  0  0  0  0  0  0
    1.3615    0.7846    0.0000 N   0  0  0  0  0  0  0  0  0  0  0  0
    0.2993   -0.1716    0.0000 O   0  0  0  0  0  0  0  0  0  0  0  0
    1.9138    0.1710    0.0000 C   0  0  0  0  0  0  0  0  0  0  0  0
    1.6583   -0.6133    0.0000 C   0  0  0  0  0  0  0  0  0  0  0  0
    2.2106   -1.2263    0.0000 C   0  0  0  0  0  0  0  0  0  0  0  0
    3.0173   -1.0550    0.0000 C   0  0  0  0  0  0  0  0  0  0  0  0
    3.2728   -0.2707    0.0000 C   0  0  0  0  0  0  0  0  0  0  0  0
    2.7205    0.3423    0.0000 C   0  0  0  0  0  0  0  0  0  0  0  0
  1  2  2  0        0
  2  3  1  0        0
  3  4  2  0        0
  4  5  1  0        0
  5  6  2  0        0
  6  1  1  0        0
  4  7  1  0        0
  7  8  1  0        0
  8  9  2  0        0
  9  5  1  0        0
  9 10  1  0        0
 10 11  1  0        0
 11 12  1  0        0
 12 13  1  0        0
 12 14  2  0        0
 13 15  1  0        0
 15 16  1  0        0
 16 17  2  0        0
 17 18  1  0        0
 18 19  2  0        0
 19 20  1  0        0
 20 15  2  0        0
M  END
$$$$
