3a.sdf
  ChemDraw10132515062D

 23 25  0  0  1  0  0  0  0  0999 V2000
   -2.1688    0.8539    0.0000 C   0  0  0  0  0  0  0  0  0  0  0  0
   -2.1688    0.0289    0.0000 C   0  0  0  0  0  0  0  0  0  0  0  0
   -1.4543   -0.3836    0.0000 C   0  0  0  0  0  0  0  0  0  0  0  0
   -0.7399    0.0289    0.0000 C   0  0  0  0  0  0  0  0  0  0  0  0
   -0.7399    0.8539    0.0000 C   0  0  0  0  0  0  0  0  0  0  0  0
   -1.4543    1.2664    0.0000 C   0  0  0  0  0  0  0  0  0  0  0  0
    0.0450   -0.2260    0.0000 N   0  0  0  0  0  0  0  0  0  0  0  0
    0.5297    0.4414    0.0000 C   0  0  0  0  0  0  0  0  0  0  0  0
    0.0450    1.1089    0.0000 C   0  0  0  0  0  0  0  0  0  0  0  0
    0.2999    1.8938    0.0000 C   0  0  0  0  0  0  0  0  0  0  0  0
    1.1066    2.0651    0.0000 C   0  0  0  0  0  0  0  0  0  0  0  0
    0.2999   -1.0103    0.0000 C   0  0  0  0  0  0  0  0  0  0  0  0
   -0.2524   -1.6234    0.0000 C   0  0  0  0  0  0  0  0  0  0  0  0
   -1.0590   -1.4521    0.0000 C   0  0  0  0  0  0  0  0  0  0  0  0
   -1.6113   -2.0651    0.0000 C   0  0  0  0  0  0  0  0  0  0  0  0
   -1.3564   -2.8500    0.0000 C   0  0  0  0  0  0  0  0  0  0  0  0
   -0.5491   -3.0213    0.0000 C   0  0  0  0  0  0  0  0  0  0  0  0
    0.0026   -2.4083    0.0000 C   0  0  0  0  0  0  0  0  0  0  0  0
   -1.9081   -3.4630    0.0000 Br  0  0  0  0  0  0  0  0  0  0  0  0
    1.3615    2.8500    0.0000 C   0  0  0  0  0  0  0  0  0  0  0  0
    2.1688    3.0213    0.0000 O   0  0  0  0  0  0  0  0  0  0  0  0
    0.8098    3.4630    0.0000 O   0  0  0  0  0  0  0  0  0  0  0  0
    1.6589    1.4521    0.0000 N   0  0  0  0  0  0  0  0  0  0  0  0
  1  2  2  0        0
  2  3  1  0        0
  3  4  2  0        0
  4  5  1  0        0
  5  6  2  0        0
  6  1  1  0        0
  4  7  1  0        0
  7  8  1  0        0
  8  9  2  0        0
  9  5  1  0        0
  9 10  1  0        0
 10 11  1  0        0
  7 12  1  0        0
 12 13  1  0        0
 13 14  2  0        0
 14 15  1  0        0
 15 16  2  0        0
 16 17  1  0        0
 17 18  2  0        0
 18 13  1  0        0
 16 19  1  0        0
 11 20  1  0        0
 20 21  1  0        0
 20 22  2  0        0
 11 23  1  1        0
M  END
$$$$
