9.sdf
  ChemDraw10132515002D

 19 21  0  0  0  0  0  0  0  0999 V2000
   -2.9757   -0.9436    0.0000 C   0  0  0  0  0  0  0  0  0  0  0  0
   -2.9757   -1.7686    0.0000 C   0  0  0  0  0  0  0  0  0  0  0  0
   -2.2613   -2.1811    0.0000 C   0  0  0  0  0  0  0  0  0  0  0  0
   -1.5469   -1.7686    0.0000 C   0  0  0  0  0  0  0  0  0  0  0  0
   -1.5469   -0.9436    0.0000 C   0  0  0  0  0  0  0  0  0  0  0  0
   -2.2613   -0.5311    0.0000 C   0  0  0  0  0  0  0  0  0  0  0  0
   -0.7620   -2.0235    0.0000 N   0  0  0  0  0  0  0  0  0  0  0  0
   -0.2773   -1.3561    0.0000 C   0  0  0  0  0  0  0  0  0  0  0  0
   -0.7620   -0.6886    0.0000 C   0  0  0  0  0  0  0  0  0  0  0  0
   -0.5070    0.0962    0.0000 C   0  0  0  0  0  0  0  0  0  0  0  0
    0.3002    0.2681    0.0000 C   0  0  0  0  0  0  0  0  0  0  0  0
    0.5552    1.0524    0.0000 C   0  0  0  0  0  0  0  0  0  0  0  0
    1.3618    1.2243    0.0000 C   0  0  0  0  0  0  0  0  0  0  0  0
    0.0029    1.6660    0.0000 O   0  0  0  0  0  0  0  0  0  0  0  0
    1.9141    0.6113    0.0000 C   0  0  0  0  0  0  0  0  0  0  0  0
    2.7208    0.7832    0.0000 C   0  0  0  0  0  0  0  0  0  0  0  0
    2.9757    1.5681    0.0000 C   0  0  0  0  0  0  0  0  0  0  0  0
    2.4234    2.1811    0.0000 C   0  0  0  0  0  0  0  0  0  0  0  0
    1.6162    2.0092    0.0000 C   0  0  0  0  0  0  0  0  0  0  0  0
  1  2  2  0        0
  2  3  1  0        0
  3  4  2  0        0
  4  5  1  0        0
  5  6  2  0        0
  6  1  1  0        0
  4  7  1  0        0
  7  8  1  0        0
  8  9  2  0        0
  9  5  1  0        0
  9 10  1  0        0
 10 11  2  0        0
 11 12  1  0        0
 12 13  1  0        0
 12 14  2  0        0
 13 15  1  0        0
 15 16  2  0        0
 16 17  1  0        0
 17 18  2  0        0
 18 19  1  0        0
 19 13  2  0        0
M  END
$$$$
