17.sdf
  ChemDraw10132514592D

 15 16  0  0  0  0  0  0  0  0999 V2000
   -2.4449   -0.8571    0.0000 C   0  0  0  0  0  0  0  0  0  0  0  0
   -2.4449   -1.6821    0.0000 C   0  0  0  0  0  0  0  0  0  0  0  0
   -1.7305   -2.0946    0.0000 C   0  0  0  0  0  0  0  0  0  0  0  0
   -1.0161   -1.6821    0.0000 C   0  0  0  0  0  0  0  0  0  0  0  0
   -1.0161   -0.8571    0.0000 C   0  0  0  0  0  0  0  0  0  0  0  0
   -1.7305   -0.4446    0.0000 C   0  0  0  0  0  0  0  0  0  0  0  0
   -0.2312   -1.9370    0.0000 N   0  0  0  0  0  0  0  0  0  0  0  0
    0.2535   -1.2696    0.0000 C   0  0  0  0  0  0  0  0  0  0  0  0
   -0.2312   -0.6021    0.0000 C   0  0  0  0  0  0  0  0  0  0  0  0
    0.0238    0.1828    0.0000 C   0  0  0  0  0  0  0  0  0  0  0  0
    0.8304    0.3541    0.0000 N   0  0  0  0  0  0  0  0  0  0  0  0
    1.0860    1.1384    0.0000 N   0  0  0  0  0  0  0  0  0  0  0  0
    1.8926    1.3097    0.0000 C   0  0  0  0  0  0  0  0  0  0  0  0
    2.1476    2.0946    0.0000 O   0  0  0  0  0  0  0  0  0  0  0  0
    2.4449    0.6967    0.0000 N   0  0  0  0  0  0  0  0  0  0  0  0
  1  2  2  0        0
  2  3  1  0        0
  3  4  2  0        0
  4  5  1  0        0
  5  6  2  0        0
  6  1  1  0        0
  4  7  1  0        0
  7  8  1  0        0
  8  9  2  0        0
  9  5  1  0        0
  9 10  1  0        0
 10 11  2  0        0
 11 12  1  0        0
 12 13  1  0        0
 13 14  2  0        0
 13 15  1  0        0
M  END
$$$$
