14e.sdf
  ChemDraw10132515382D

 17 18  0  0  0  0  0  0  0  0999 V2000
   -2.1688   -0.0660    0.0000 C   0  0  0  0  0  0  0  0  0  0  0  0
   -2.1688   -0.8910    0.0000 C   0  0  0  0  0  0  0  0  0  0  0  0
   -1.4543   -1.3035    0.0000 C   0  0  0  0  0  0  0  0  0  0  0  0
   -0.7399   -0.8910    0.0000 C   0  0  0  0  0  0  0  0  0  0  0  0
   -0.7399   -0.0660    0.0000 C   0  0  0  0  0  0  0  0  0  0  0  0
   -1.4543    0.3465    0.0000 C   0  0  0  0  0  0  0  0  0  0  0  0
    0.0450   -1.1459    0.0000 N   0  0  0  0  0  0  0  0  0  0  0  0
    0.5298   -0.4785    0.0000 C   0  0  0  0  0  0  0  0  0  0  0  0
    0.0450    0.1892    0.0000 C   0  0  0  0  0  0  0  0  0  0  0  0
    0.2999    0.9741    0.0000 C   0  0  0  0  0  0  0  0  0  0  0  0
    1.1073    1.1459    0.0000 O   0  0  0  0  0  0  0  0  0  0  0  0
    1.3617    1.9302    0.0000 C   0  0  0  0  0  0  0  0  0  0  0  0
    2.1688    2.1021    0.0000 C   0  0  0  0  0  0  0  0  0  0  0  0
    0.8097    2.5432    0.0000 O   0  0  0  0  0  0  0  0  0  0  0  0
    0.2999   -1.9302    0.0000 C   0  0  0  0  0  0  0  0  0  0  0  0
   -0.2518   -2.5432    0.0000 C   0  0  0  0  0  0  0  0  0  0  0  0
    1.1073   -2.1016    0.0000 O   0  0  0  0  0  0  0  0  0  0  0  0
  1  2  2  0        0
  2  3  1  0        0
  3  4  2  0        0
  4  5  1  0        0
  5  6  2  0        0
  6  1  1  0        0
  4  7  1  0        0
  7  8  1  0        0
  8  9  2  0        0
  9  5  1  0        0
  9 10  1  0        0
 10 11  1  0        0
 11 12  1  0        0
 12 13  1  0        0
 12 14  2  0        0
  7 15  1  0        0
 15 16  1  0        0
 15 17  2  0        0
M  END
$$$$
