17f.sdf
  ChemDraw10132515412D

 25 27  0  0  0  0  0  0  0  0999 V2000
   -2.4850    1.3538    0.0000 C   0  0  0  0  0  0  0  0  0  0  0  0
   -2.4850    0.5302    0.0000 C   0  0  0  0  0  0  0  0  0  0  0  0
   -1.7717    0.1185    0.0000 C   0  0  0  0  0  0  0  0  0  0  0  0
   -1.0583    0.5302    0.0000 C   0  0  0  0  0  0  0  0  0  0  0  0
   -1.0583    1.3538    0.0000 C   0  0  0  0  0  0  0  0  0  0  0  0
   -1.7717    1.7658    0.0000 C   0  0  0  0  0  0  0  0  0  0  0  0
   -0.2751    0.2758    0.0000 N   0  0  0  0  0  0  0  0  0  0  0  0
    0.2091    0.9422    0.0000 C   0  0  0  0  0  0  0  0  0  0  0  0
   -0.2751    1.6085    0.0000 C   0  0  0  0  0  0  0  0  0  0  0  0
   -0.0205    2.3917    0.0000 C   0  0  0  0  0  0  0  0  0  0  0  0
   -0.0205   -0.5074    0.0000 C   0  0  0  0  0  0  0  0  0  0  0  0
   -0.6029   -1.0898    0.0000 C   0  0  0  0  0  0  0  0  0  0  0  0
   -0.3898   -1.8854    0.0000 C   0  0  0  0  0  0  0  0  0  0  0  0
   -1.3985   -0.8767    0.0000 O   0  0  0  0  0  0  0  0  0  0  0  0
   -0.9723   -2.4679    0.0000 C   0  0  0  0  0  0  0  0  0  0  0  0
   -0.7591   -3.2634    0.0000 C   0  0  0  0  0  0  0  0  0  0  0  0
    0.0364   -3.4765    0.0000 C   0  0  0  0  0  0  0  0  0  0  0  0
    0.6189   -2.8941    0.0000 C   0  0  0  0  0  0  0  0  0  0  0  0
    0.4058   -2.0985    0.0000 C   0  0  0  0  0  0  0  0  0  0  0  0
    0.2496   -4.2721    0.0000 Br  0  0  0  0  0  0  0  0  0  0  0  0
    0.8705    2.5316    0.0000 N   0  0  0  0  0  0  0  0  0  0  0  0
    1.1260    3.3160    0.0000 N   0  0  0  0  0  0  0  0  0  0  0  0
    1.9326    3.4873    0.0000 C   0  0  0  0  0  0  0  0  0  0  0  0
    2.1875    4.2721    0.0000 O   0  0  0  0  0  0  0  0  0  0  0  0
    2.4850    2.8743    0.0000 N   0  0  0  0  0  0  0  0  0  0  0  0
  1  2  2  0        0
  2  3  1  0        0
  3  4  2  0        0
  4  5  1  0        0
  5  6  2  0        0
  6  1  1  0        0
  4  7  1  0        0
  7  8  1  0        0
  8  9  2  0        0
  9  5  1  0        0
  9 10  1  0        0
  7 11  1  0        0
 11 12  1  0        0
 12 13  1  0        0
 12 14  2  0        0
 13 15  1  0        0
 15 16  2  0        0
 16 17  1  0        0
 17 18  2  0        0
 18 19  1  0        0
 19 13  2  0        0
 17 20  1  0        0
 21 22  1  0        0
 22 23  1  0        0
 23 24  2  0        0
 23 25  1  0        0
 10 21  2  0        0
M  END
$$$$
