4a.pdb
 OpenBabel01072620023D

 33 35  0  0  0  0  0  0  0  0999 V2000
   -2.6820    2.7420   -0.5410 C   0  0  0  0  0  0  0  0  0  0  0  0
   -2.6900    1.3860   -0.8360 C   0  0  0  0  0  0  0  0  0  0  0  0
   -1.5180    0.6260   -0.7620 C   0  0  0  0  0  0  0  0  0  0  0  0
   -0.3290    1.2510   -0.3450 C   0  0  0  0  0  0  0  0  0  0  0  0
   -0.2930    2.6320   -0.1010 C   0  0  0  0  0  0  0  0  0  0  0  0
   -1.4880    3.3790   -0.1950 C   0  0  0  0  0  0  0  0  0  0  0  0
    0.9390    0.7670   -0.0870 N   0  0  0  0  0  0  0  0  0  0  0  0
    1.7880    1.8270    0.1660 C   0  0  0  0  0  0  0  0  0  0  0  0
    1.0630    3.0010    0.1620 C   0  0  0  0  0  0  0  0  0  0  0  0
    1.5710    4.3930    0.3470 C   0  0  0  0  0  0  0  0  0  0  0  0
    1.4730   -0.6010   -0.1620 C   0  0  0  0  0  0  0  0  0  0  0  0
    0.5520   -1.7710    0.0920 C   0  0  0  0  0  0  0  0  0  0  0  0
   -1.2460   -2.9010    1.2810 C   0  0  0  0  0  0  0  0  0  0  0  0
   -1.0610   -4.0350    0.4940 C   0  0  0  0  0  0  0  0  0  0  0  0
   -0.0550   -4.0680   -0.4660 C   0  0  0  0  0  0  0  0  0  0  0  0
    0.7460   -2.9420   -0.6640 C   0  0  0  0  0  0  0  0  0  0  0  0
   -2.1770   -5.5420    0.7320 Br  0  0  0  0  0  0  0  0  0  0  0  0
    2.9730    4.4450    0.5970 O   0  0  0  0  0  0  0  0  0  0  0  0
   -0.4220   -1.7840    1.1010 C   0  0  0  0  0  0  0  0  0  0  0  0
   -2.0300   -2.8720    2.0330 H   0  0  0  0  0  0  0  0  0  0  0  0
   -3.6030    3.3170   -0.5980 H   0  0  0  0  0  0  0  0  0  0  0  0
   -3.6210    0.9040   -1.1260 H   0  0  0  0  0  0  0  0  0  0  0  0
   -1.4860    4.4470   -0.0000 H   0  0  0  0  0  0  0  0  0  0  0  0
    2.8490    1.6610    0.3020 H   0  0  0  0  0  0  0  0  0  0  0  0
    2.2850   -0.6600    0.5750 H   0  0  0  0  0  0  0  0  0  0  0  0
    1.9170   -0.6710   -1.1620 H   0  0  0  0  0  0  0  0  0  0  0  0
    0.1130   -4.9590   -1.0660 H   0  0  0  0  0  0  0  0  0  0  0  0
    1.5300   -2.9870   -1.4170 H   0  0  0  0  0  0  0  0  0  0  0  0
   -0.5790   -0.9100    1.7320 H   0  0  0  0  0  0  0  0  0  0  0  0
   -1.5550   -0.4290   -1.0130 H   0  0  0  0  0  0  0  0  0  0  0  0
    1.0610    4.8780    1.1850 H   0  0  0  0  0  0  0  0  0  0  0  0
    1.3750    4.9810   -0.5560 H   0  0  0  0  0  0  0  0  0  0  0  0
    3.1270    3.8780    1.3700 H   0  0  0  0  0  0  0  0  0  0  0  0
  1  2  2  0  0  0  0
  1 21  1  0  0  0  0
  1  6  1  0  0  0  0
  2 22  1  0  0  0  0
  2  3  1  0  0  0  0
  3 30  1  0  0  0  0
  3  4  2  0  0  0  0
  4  5  1  0  0  0  0
  4  7  1  0  0  0  0
  5  6  2  0  0  0  0
  5  9  1  0  0  0  0
  6 23  1  0  0  0  0
  7 11  1  0  0  0  0
  7  8  1  0  0  0  0
  8  9  2  0  0  0  0
  8 24  1  0  0  0  0
  9 10  1  0  0  0  0
 10 32  1  0  0  0  0
 10 18  1  0  0  0  0
 10 31  1  0  0  0  0
 11 26  1  0  0  0  0
 11 12  1  0  0  0  0
 11 25  1  0  0  0  0
 12 16  2  0  0  0  0
 12 19  1  0  0  0  0
 13 14  1  0  0  0  0
 13 19  2  0  0  0  0
 13 20  1  0  0  0  0
 14 15  2  0  0  0  0
 14 17  1  0  0  0  0
 15 27  1  0  0  0  0
 15 16  1  0  0  0  0
 16 28  1  0  0  0  0
 18 33  1  0  0  0  0
 19 29  1  0  0  0  0
M  END
>  <COMPND>
    UNNAMED

>  <AUTHOR>
    GENERATED BY OPEN BABEL 2.3.90

>  <MASTER>
        0    0    0    0    0    0    0    0   33    0   33    0

$$$$
