8b.sdf
  ChemDraw10132515322D

 28 31  0  0  0  0  0  0  0  0999 V2000
   -3.2725    0.4616    0.0000 C   0  0  0  0  0  0  0  0  0  0  0  0
   -3.2725   -0.3634    0.0000 C   0  0  0  0  0  0  0  0  0  0  0  0
   -2.5580   -0.7759    0.0000 C   0  0  0  0  0  0  0  0  0  0  0  0
   -1.8436   -0.3634    0.0000 C   0  0  0  0  0  0  0  0  0  0  0  0
   -1.8436    0.4616    0.0000 C   0  0  0  0  0  0  0  0  0  0  0  0
   -2.5580    0.8741    0.0000 C   0  0  0  0  0  0  0  0  0  0  0  0
   -1.0587   -0.6183    0.0000 N   0  0  0  0  0  0  0  0  0  0  0  0
   -0.5739    0.0491    0.0000 C   0  0  0  0  0  0  0  0  0  0  0  0
   -1.0587    0.7168    0.0000 C   0  0  0  0  0  0  0  0  0  0  0  0
   -0.8038    1.5016    0.0000 C   0  0  0  0  0  0  0  0  0  0  0  0
    0.0030    1.6730    0.0000 N   0  0  0  0  0  0  0  0  0  0  0  0
   -0.8038   -1.4026    0.0000 C   0  0  0  0  0  0  0  0  0  0  0  0
   -1.3560   -2.0156    0.0000 C   0  0  0  0  0  0  0  0  0  0  0  0
   -2.1626   -1.8443    0.0000 C   0  0  0  0  0  0  0  0  0  0  0  0
   -2.7151   -2.4573    0.0000 C   0  0  0  0  0  0  0  0  0  0  0  0
   -2.4601   -3.2421    0.0000 N   0  0  0  0  0  0  0  0  0  0  0  0
   -1.6527   -3.4134    0.0000 C   0  0  0  0  0  0  0  0  0  0  0  0
   -1.1011   -2.8005    0.0000 C   0  0  0  0  0  0  0  0  0  0  0  0
    0.2580    2.4573    0.0000 N   0  0  0  0  0  0  0  0  0  0  0  0
    1.0651    2.6286    0.0000 C   0  0  0  0  0  0  0  0  0  0  0  0
    1.3200    3.4134    0.0000 O   0  0  0  0  0  0  0  0  0  0  0  0
    1.6167    2.0153    0.0000 C   0  0  0  0  0  0  0  0  0  0  0  0
    1.3618    1.2310    0.0000 C   0  0  0  0  0  0  0  0  0  0  0  0
    1.9137    0.6175    0.0000 C   0  0  0  0  0  0  0  0  0  0  0  0
    2.7209    0.7888    0.0000 C   0  0  0  0  0  0  0  0  0  0  0  0
    2.9758    1.5737    0.0000 C   0  0  0  0  0  0  0  0  0  0  0  0
    2.4236    2.1867    0.0000 C   0  0  0  0  0  0  0  0  0  0  0  0
    3.2725    0.1759    0.0000 Br  0  0  0  0  0  0  0  0  0  0  0  0
  1  2  2  0        0
  2  3  1  0        0
  3  4  2  0        0
  4  5  1  0        0
  5  6  2  0        0
  6  1  1  0        0
  4  7  1  0        0
  7  8  1  0        0
  8  9  2  0        0
  9  5  1  0        0
  9 10  1  0        0
 10 11  2  0        0
  7 12  1  0        0
 12 13  1  0        0
 13 14  2  0        0
 14 15  1  0        0
 15 16  2  0        0
 16 17  1  0        0
 17 18  2  0        0
 18 13  1  0        0
 11 19  1  0        0
 19 20  1  0        0
 20 21  2  0        0
 20 22  1  0        0
 22 23  2  0        0
 23 24  1  0        0
 24 25  2  0        0
 25 26  1  0        0
 26 27  2  0        0
 27 22  1  0        0
 25 28  1  0        0
M  END
$$$$
