0b.sdf
  ChemDraw10132515292D

 16 18  0  0  0  0  0  0  0  0999 V2000
   -1.3491    1.7314    0.0000 C   0  0  0  0  0  0  0  0  0  0  0  0
   -1.3491    0.9064    0.0000 C   0  0  0  0  0  0  0  0  0  0  0  0
   -0.6347    0.4939    0.0000 C   0  0  0  0  0  0  0  0  0  0  0  0
    0.0797    0.9064    0.0000 C   0  0  0  0  0  0  0  0  0  0  0  0
    0.0797    1.7314    0.0000 C   0  0  0  0  0  0  0  0  0  0  0  0
   -0.6347    2.1439    0.0000 C   0  0  0  0  0  0  0  0  0  0  0  0
    0.8640    0.6515    0.0000 N   0  0  0  0  0  0  0  0  0  0  0  0
    1.3491    1.3189    0.0000 C   0  0  0  0  0  0  0  0  0  0  0  0
    0.8640    1.9863    0.0000 C   0  0  0  0  0  0  0  0  0  0  0  0
    1.1190   -0.1328    0.0000 C   0  0  0  0  0  0  0  0  0  0  0  0
    0.5673   -0.7458    0.0000 C   0  0  0  0  0  0  0  0  0  0  0  0
   -0.2401   -0.5747    0.0000 C   0  0  0  0  0  0  0  0  0  0  0  0
   -0.7917   -1.1877    0.0000 C   0  0  0  0  0  0  0  0  0  0  0  0
   -0.5368   -1.9720    0.0000 N   0  0  0  0  0  0  0  0  0  0  0  0
    0.2698   -2.1439    0.0000 C   0  0  0  0  0  0  0  0  0  0  0  0
    0.8223   -1.5309    0.0000 C   0  0  0  0  0  0  0  0  0  0  0  0
  1  2  2  0        0
  2  3  1  0        0
  3  4  2  0        0
  4  5  1  0        0
  5  6  2  0        0
  6  1  1  0        0
  4  7  1  0        0
  7  8  1  0        0
  8  9  2  0        0
  9  5  1  0        0
  7 10  1  0        0
 10 11  1  0        0
 11 12  2  0        0
 12 13  1  0        0
 13 14  2  0        0
 14 15  1  0        0
 15 16  2  0        0
 16 11  1  0        0
M  END
$$$$
