16.sdf
  ChemDraw10132514592D

 19 21  0  0  0  0  0  0  0  0999 V2000
   -3.5277   -0.2446    0.0000 C   0  0  0  0  0  0  0  0  0  0  0  0
   -3.5277   -1.0696    0.0000 C   0  0  0  0  0  0  0  0  0  0  0  0
   -2.8133   -1.4821    0.0000 C   0  0  0  0  0  0  0  0  0  0  0  0
   -2.0989   -1.0696    0.0000 C   0  0  0  0  0  0  0  0  0  0  0  0
   -2.0989   -0.2446    0.0000 C   0  0  0  0  0  0  0  0  0  0  0  0
   -2.8133    0.1679    0.0000 C   0  0  0  0  0  0  0  0  0  0  0  0
   -1.3140   -1.3246    0.0000 N   0  0  0  0  0  0  0  0  0  0  0  0
   -0.8293   -0.6571    0.0000 C   0  0  0  0  0  0  0  0  0  0  0  0
   -1.3140    0.0103    0.0000 C   0  0  0  0  0  0  0  0  0  0  0  0
   -1.0590    0.7946    0.0000 C   0  0  0  0  0  0  0  0  0  0  0  0
   -0.2524    0.9665    0.0000 O   0  0  0  0  0  0  0  0  0  0  0  0
    0.3005    0.3535    0.0000 C   0  0  0  0  0  0  0  0  0  0  0  0
    1.1072    0.5254    0.0000 C   0  0  0  0  0  0  0  0  0  0  0  0
    1.6595   -0.0871    0.0000 C   0  0  0  0  0  0  0  0  0  0  0  0
    2.4661    0.0848    0.0000 C   0  0  0  0  0  0  0  0  0  0  0  0
    2.7211    0.8697    0.0000 C   0  0  0  0  0  0  0  0  0  0  0  0
    2.1688    1.4821    0.0000 C   0  0  0  0  0  0  0  0  0  0  0  0
    1.3615    1.3103    0.0000 C   0  0  0  0  0  0  0  0  0  0  0  0
    3.5277    1.0416    0.0000 Cl  0  0  0  0  0  0  0  0  0  0  0  0
  1  2  2  0        0
  2  3  1  0        0
  3  4  2  0        0
  4  5  1  0        0
  5  6  2  0        0
  6  1  1  0        0
  4  7  1  0        0
  7  8  1  0        0
  8  9  2  0        0
  9  5  1  0        0
  9 10  1  0        0
 10 11  1  0        0
 11 12  1  0        0
 12 13  1  0        0
 13 14  1  0        0
 14 15  2  0        0
 15 16  1  0        0
 16 17  2  0        0
 17 18  1  0        0
 18 13  2  0        0
 16 19  1  0        0
M  END
$$$$
