17a.sdf
  ChemDraw10132515112D

 23 25  0  0  0  0  0  0  0  0999 V2000
   -2.4449    0.6826    0.0000 C   0  0  0  0  0  0  0  0  0  0  0  0
   -2.4449   -0.1424    0.0000 C   0  0  0  0  0  0  0  0  0  0  0  0
   -1.7305   -0.5549    0.0000 C   0  0  0  0  0  0  0  0  0  0  0  0
   -1.0161   -0.1424    0.0000 C   0  0  0  0  0  0  0  0  0  0  0  0
   -1.0161    0.6826    0.0000 C   0  0  0  0  0  0  0  0  0  0  0  0
   -1.7305    1.0951    0.0000 C   0  0  0  0  0  0  0  0  0  0  0  0
   -0.2312   -0.3973    0.0000 N   0  0  0  0  0  0  0  0  0  0  0  0
    0.2535    0.2701    0.0000 C   0  0  0  0  0  0  0  0  0  0  0  0
   -0.2312    0.9376    0.0000 C   0  0  0  0  0  0  0  0  0  0  0  0
    0.0238    1.7225    0.0000 C   0  0  0  0  0  0  0  0  0  0  0  0
    0.8304    1.8938    0.0000 N   0  0  0  0  0  0  0  0  0  0  0  0
    1.0860    2.6781    0.0000 N   0  0  0  0  0  0  0  0  0  0  0  0
    1.8926    2.8494    0.0000 C   0  0  0  0  0  0  0  0  0  0  0  0
    2.1476    3.6343    0.0000 O   0  0  0  0  0  0  0  0  0  0  0  0
    2.4449    2.2364    0.0000 N   0  0  0  0  0  0  0  0  0  0  0  0
    0.0238   -1.1816    0.0000 C   0  0  0  0  0  0  0  0  0  0  0  0
   -0.5279   -1.7952    0.0000 C   0  0  0  0  0  0  0  0  0  0  0  0
   -1.3352   -1.6234    0.0000 C   0  0  0  0  0  0  0  0  0  0  0  0
   -1.8869   -2.2370    0.0000 C   0  0  0  0  0  0  0  0  0  0  0  0
   -1.6320   -3.0213    0.0000 C   0  0  0  0  0  0  0  0  0  0  0  0
   -0.8247   -3.1926    0.0000 C   0  0  0  0  0  0  0  0  0  0  0  0
   -0.2730   -2.5796    0.0000 C   0  0  0  0  0  0  0  0  0  0  0  0
   -2.1837   -3.6343    0.0000 Br  0  0  0  0  0  0  0  0  0  0  0  0
  1  2  2  0        0
  2  3  1  0        0
  3  4  2  0        0
  4  5  1  0        0
  5  6  2  0        0
  6  1  1  0        0
  4  7  1  0        0
  7  8  1  0        0
  8  9  2  0        0
  9  5  1  0        0
  9 10  1  0        0
 10 11  2  0        0
 11 12  1  0        0
 12 13  1  0        0
 13 14  2  0        0
 13 15  1  0        0
  7 16  1  0        0
 16 17  1  0        0
 17 18  2  0        0
 18 19  1  0        0
 19 20  2  0        0
 20 21  1  0        0
 21 22  2  0        0
 22 17  1  0        0
 20 23  1  0        0
M  END
$$$$
