4d.sdf
  ChemDraw10132515342D

 19 21  0  0  0  0  0  0  0  0999 V2000
   -1.6379    1.3321    0.0000 C   0  0  0  0  0  0  0  0  0  0  0  0
   -1.6379    0.5071    0.0000 C   0  0  0  0  0  0  0  0  0  0  0  0
   -0.9234    0.0946    0.0000 C   0  0  0  0  0  0  0  0  0  0  0  0
   -0.2090    0.5071    0.0000 C   0  0  0  0  0  0  0  0  0  0  0  0
   -0.2090    1.3321    0.0000 C   0  0  0  0  0  0  0  0  0  0  0  0
   -0.9234    1.7446    0.0000 C   0  0  0  0  0  0  0  0  0  0  0  0
    0.5758    0.2522    0.0000 N   0  0  0  0  0  0  0  0  0  0  0  0
    1.0604    0.9196    0.0000 C   0  0  0  0  0  0  0  0  0  0  0  0
    0.5758    1.5870    0.0000 C   0  0  0  0  0  0  0  0  0  0  0  0
    0.8308    2.3713    0.0000 C   0  0  0  0  0  0  0  0  0  0  0  0
    0.8308   -0.5327    0.0000 C   0  0  0  0  0  0  0  0  0  0  0  0
    0.2786   -1.1456    0.0000 C   0  0  0  0  0  0  0  0  0  0  0  0
   -0.5283   -0.9738    0.0000 C   0  0  0  0  0  0  0  0  0  0  0  0
   -1.0805   -1.5870    0.0000 C   0  0  0  0  0  0  0  0  0  0  0  0
   -0.8255   -2.3719    0.0000 C   0  0  0  0  0  0  0  0  0  0  0  0
   -0.0181   -2.5432    0.0000 C   0  0  0  0  0  0  0  0  0  0  0  0
    0.5335   -1.9302    0.0000 C   0  0  0  0  0  0  0  0  0  0  0  0
    1.6374    2.5432    0.0000 O   0  0  0  0  0  0  0  0  0  0  0  0
    1.6379   -0.7045    0.0000 O   0  0  0  0  0  0  0  0  0  0  0  0
  1  2  2  0        0
  2  3  1  0        0
  3  4  2  0        0
  4  5  1  0        0
  5  6  2  0        0
  6  1  1  0        0
  4  7  1  0        0
  7  8  1  0        0
  8  9  2  0        0
  9  5  1  0        0
  9 10  1  0        0
  7 11  1  0        0
 11 12  1  0        0
 12 13  2  0        0
 13 14  1  0        0
 14 15  2  0        0
 15 16  1  0        0
 16 17  2  0        0
 17 12  1  0        0
 10 18  1  0        0
 11 19  2  0        0
M  END
$$$$
