15.sdf
  ChemDraw10132514592D

 18 19  0  0  0  0  0  0  0  0999 V2000
   -2.9757   -0.8577    0.0000 C   0  0  0  0  0  0  0  0  0  0  0  0
   -2.9757   -1.6827    0.0000 C   0  0  0  0  0  0  0  0  0  0  0  0
   -2.2613   -2.0952    0.0000 C   0  0  0  0  0  0  0  0  0  0  0  0
   -1.5469   -1.6827    0.0000 C   0  0  0  0  0  0  0  0  0  0  0  0
   -1.5469   -0.8577    0.0000 C   0  0  0  0  0  0  0  0  0  0  0  0
   -2.2613   -0.4452    0.0000 C   0  0  0  0  0  0  0  0  0  0  0  0
   -0.7620   -1.9376    0.0000 N   0  0  0  0  0  0  0  0  0  0  0  0
   -0.2773   -1.2702    0.0000 C   0  0  0  0  0  0  0  0  0  0  0  0
   -0.7620   -0.6027    0.0000 C   0  0  0  0  0  0  0  0  0  0  0  0
   -0.5070    0.1822    0.0000 C   0  0  0  0  0  0  0  0  0  0  0  0
    0.3002    0.3541    0.0000 O   0  0  0  0  0  0  0  0  0  0  0  0
    0.5546    1.1384    0.0000 C   0  0  0  0  0  0  0  0  0  0  0  0
    1.3618    1.3103    0.0000 C   0  0  0  0  0  0  0  0  0  0  0  0
    0.0029    1.7514    0.0000 O   0  0  0  0  0  0  0  0  0  0  0  0
    1.9141    0.6972    0.0000 C   0  0  0  0  0  0  0  0  0  0  0  0
    2.7208    0.8691    0.0000 C   0  0  0  0  0  0  0  0  0  0  0  0
    2.9757    1.6540    0.0000 C   0  0  0  0  0  0  0  0  0  0  0  0
    1.6162    2.0952    0.0000 C   0  0  0  0  0  0  0  0  0  0  0  0
  1  2  2  0        0
  2  3  1  0        0
  3  4  2  0        0
  4  5  1  0        0
  5  6  2  0        0
  6  1  1  0        0
  4  7  1  0        0
  7  8  1  0        0
  8  9  2  0        0
  9  5  1  0        0
  9 10  1  0        0
 10 11  1  0        0
 11 12  1  0        0
 12 13  1  0        0
 12 14  2  0        0
 13 15  1  0        0
 15 16  2  0        0
 16 17  1  0        0
 18 13  2  0        0
M  END
$$$$
