23a.sdf
  ChemDraw10132515132D

 32 35  0  0  0  0  0  0  0  0999 V2000
   -3.2726    0.6823    0.0000 C   0  0  0  0  0  0  0  0  0  0  0  0
   -3.2726   -0.1427    0.0000 C   0  0  0  0  0  0  0  0  0  0  0  0
   -2.5582   -0.5552    0.0000 C   0  0  0  0  0  0  0  0  0  0  0  0
   -1.8438   -0.1427    0.0000 C   0  0  0  0  0  0  0  0  0  0  0  0
   -1.8438    0.6823    0.0000 C   0  0  0  0  0  0  0  0  0  0  0  0
   -2.5582    1.0948    0.0000 C   0  0  0  0  0  0  0  0  0  0  0  0
   -1.0589   -0.3976    0.0000 N   0  0  0  0  0  0  0  0  0  0  0  0
   -0.5742    0.2698    0.0000 C   0  0  0  0  0  0  0  0  0  0  0  0
   -1.0589    0.9373    0.0000 C   0  0  0  0  0  0  0  0  0  0  0  0
   -0.8039    1.7222    0.0000 C   0  0  0  0  0  0  0  0  0  0  0  0
    0.0027    1.8935    0.0000 N   0  0  0  0  0  0  0  0  0  0  0  0
   -0.8039   -1.1819    0.0000 C   0  0  0  0  0  0  0  0  0  0  0  0
   -1.3562   -1.7949    0.0000 C   0  0  0  0  0  0  0  0  0  0  0  0
   -2.1629   -1.6236    0.0000 C   0  0  0  0  0  0  0  0  0  0  0  0
   -2.7152   -2.2367    0.0000 C   0  0  0  0  0  0  0  0  0  0  0  0
   -2.4602   -3.0210    0.0000 C   0  0  0  0  0  0  0  0  0  0  0  0
   -1.6530   -3.1929    0.0000 C   0  0  0  0  0  0  0  0  0  0  0  0
   -1.1013   -2.5798    0.0000 C   0  0  0  0  0  0  0  0  0  0  0  0
    0.2577    2.6778    0.0000 N   0  0  0  0  0  0  0  0  0  0  0  0
    1.0649    2.8491    0.0000 C   0  0  0  0  0  0  0  0  0  0  0  0
    1.3199    3.6340    0.0000 O   0  0  0  0  0  0  0  0  0  0  0  0
    1.6167    2.2361    0.0000 C   0  0  0  0  0  0  0  0  0  0  0  0
    1.3617    1.4518    0.0000 C   0  0  0  0  0  0  0  0  0  0  0  0
    1.9134    0.8382    0.0000 C   0  0  0  0  0  0  0  0  0  0  0  0
    2.7207    1.0095    0.0000 C   0  0  0  0  0  0  0  0  0  0  0  0
    2.9756    1.7944    0.0000 C   0  0  0  0  0  0  0  0  0  0  0  0
    2.4239    2.4074    0.0000 C   0  0  0  0  0  0  0  0  0  0  0  0
   -3.0125   -3.6340    0.0000 Br  0  0  0  0  0  0  0  0  0  0  0  0
    3.2726    0.3963    0.0000 O   0  0  0  0  0  0  0  0  0  0  0  0
    1.6581    0.0537    0.0000 O   0  0  0  0  0  0  0  0  0  0  0  0
    2.2098   -0.5597    0.0000 C   0  0  0  0  0  0  0  0  0  0  0  0
    3.0176   -0.3883    0.0000 C   0  0  0  0  0  0  0  0  0  0  0  0
  1  2  2  0        0
  2  3  1  0        0
  3  4  2  0        0
  4  5  1  0        0
  5  6  2  0        0
  6  1  1  0        0
  4  7  1  0        0
  7  8  1  0        0
  8  9  2  0        0
  9  5  1  0        0
  9 10  1  0        0
 10 11  2  0        0
  7 12  1  0        0
 12 13  1  0        0
 13 14  2  0        0
 14 15  1  0        0
 15 16  2  0        0
 16 17  1  0        0
 17 18  2  0        0
 18 13  1  0        0
 11 19  1  0        0
 19 20  1  0        0
 20 21  2  0        0
 20 22  1  0        0
 22 23  1  0        0
 23 24  2  0        0
 24 25  1  0        0
 25 26  2  0        0
 26 27  1  0        0
 27 22  2  0        0
 16 28  1  0        0
 25 29  1  0        0
 24 30  1  0        0
 30 31  1  0        0
 29 32  1  0        0
M  END
$$$$
