6.sdf
  ChemDraw10132515002D

 16 17  0  0  1  0  0  0  0  0999 V2000
   -2.2965   -0.8571    0.0000 C   0  0  0  0  0  0  0  0  0  0  0  0
   -2.2965   -1.6821    0.0000 C   0  0  0  0  0  0  0  0  0  0  0  0
   -1.5821   -2.0946    0.0000 C   0  0  0  0  0  0  0  0  0  0  0  0
   -0.8677   -1.6821    0.0000 C   0  0  0  0  0  0  0  0  0  0  0  0
   -0.8677   -0.8571    0.0000 C   0  0  0  0  0  0  0  0  0  0  0  0
   -1.5821   -0.4446    0.0000 C   0  0  0  0  0  0  0  0  0  0  0  0
   -0.0828   -1.9370    0.0000 N   0  0  0  0  0  0  0  0  0  0  0  0
    0.4019   -1.2696    0.0000 C   0  0  0  0  0  0  0  0  0  0  0  0
   -0.0828   -0.6021    0.0000 C   0  0  0  0  0  0  0  0  0  0  0  0
    0.1722    0.1828    0.0000 C   0  0  0  0  0  0  0  0  0  0  0  0
    0.9788    0.3541    0.0000 C   0  0  0  0  0  0  0  0  0  0  0  0
    1.2338    1.1390    0.0000 C   0  0  0  0  0  0  0  0  0  0  0  0
    2.0410    1.3103    0.0000 O   0  0  0  0  0  0  0  0  0  0  0  0
    0.6821    1.7520    0.0000 O   0  0  0  0  0  0  0  0  0  0  0  0
    1.5311   -0.2590    0.0000 N   0  0  0  0  0  0  0  0  0  0  0  0
    2.2965    2.0946    0.0000 C   0  0  0  0  0  0  0  0  0  0  0  0
  1  2  2  0        0
  2  3  1  0        0
  3  4  2  0        0
  4  5  1  0        0
  5  6  2  0        0
  6  1  1  0        0
  4  7  1  0        0
  7  8  1  0        0
  8  9  2  0        0
  9  5  1  0        0
  9 10  1  0        0
 10 11  1  0        0
 11 12  1  0        0
 12 13  1  0        0
 12 14  2  0        0
 11 15  1  1        0
 13 16  1  0        0
M  END
$$$$
