4c.sdf
  ChemDraw10132515182D

 19 21  0  0  0  0  0  0  0  0999 V2000
   -1.6377    1.5529    0.0000 C   0  0  0  0  0  0  0  0  0  0  0  0
   -1.6377    0.7279    0.0000 C   0  0  0  0  0  0  0  0  0  0  0  0
   -0.9233    0.3154    0.0000 C   0  0  0  0  0  0  0  0  0  0  0  0
   -0.2088    0.7279    0.0000 C   0  0  0  0  0  0  0  0  0  0  0  0
   -0.2088    1.5529    0.0000 C   0  0  0  0  0  0  0  0  0  0  0  0
   -0.9233    1.9654    0.0000 C   0  0  0  0  0  0  0  0  0  0  0  0
    0.5761    0.4729    0.0000 N   0  0  0  0  0  0  0  0  0  0  0  0
    1.0608    1.1404    0.0000 C   0  0  0  0  0  0  0  0  0  0  0  0
    0.5761    1.8078    0.0000 C   0  0  0  0  0  0  0  0  0  0  0  0
    0.8310    2.5922    0.0000 C   0  0  0  0  0  0  0  0  0  0  0  0
    0.8310   -0.3120    0.0000 C   0  0  0  0  0  0  0  0  0  0  0  0
    0.2787   -0.9250    0.0000 C   0  0  0  0  0  0  0  0  0  0  0  0
   -0.5279   -0.7531    0.0000 C   0  0  0  0  0  0  0  0  0  0  0  0
   -1.0802   -1.3661    0.0000 C   0  0  0  0  0  0  0  0  0  0  0  0
   -0.8253   -2.1510    0.0000 C   0  0  0  0  0  0  0  0  0  0  0  0
   -0.0180   -2.3223    0.0000 C   0  0  0  0  0  0  0  0  0  0  0  0
    0.5337   -1.7093    0.0000 C   0  0  0  0  0  0  0  0  0  0  0  0
   -1.3770   -2.7640    0.0000 Cl  0  0  0  0  0  0  0  0  0  0  0  0
    1.6377    2.7640    0.0000 O   0  0  0  0  0  0  0  0  0  0  0  0
  1  2  2  0        0
  2  3  1  0        0
  3  4  2  0        0
  4  5  1  0        0
  5  6  2  0        0
  6  1  1  0        0
  4  7  1  0        0
  7  8  1  0        0
  8  9  2  0        0
  9  5  1  0        0
  9 10  1  0        0
  7 11  1  0        0
 11 12  1  0        0
 12 13  2  0        0
 13 14  1  0        0
 14 15  2  0        0
 15 16  1  0        0
 16 17  2  0        0
 17 12  1  0        0
 15 18  1  0        0
 10 19  1  0        0
M  END
$$$$
