0a.sdf
  ChemDraw10132515042D

 17 19  0  0  0  0  0  0  0  0999 V2000
   -1.3492    1.9522    0.0000 C   0  0  0  0  0  0  0  0  0  0  0  0
   -1.3492    1.1272    0.0000 C   0  0  0  0  0  0  0  0  0  0  0  0
   -0.6348    0.7147    0.0000 C   0  0  0  0  0  0  0  0  0  0  0  0
    0.0796    1.1272    0.0000 C   0  0  0  0  0  0  0  0  0  0  0  0
    0.0796    1.9522    0.0000 C   0  0  0  0  0  0  0  0  0  0  0  0
   -0.6348    2.3647    0.0000 C   0  0  0  0  0  0  0  0  0  0  0  0
    0.8645    0.8723    0.0000 N   0  0  0  0  0  0  0  0  0  0  0  0
    1.3492    1.5397    0.0000 C   0  0  0  0  0  0  0  0  0  0  0  0
    0.8645    2.2072    0.0000 C   0  0  0  0  0  0  0  0  0  0  0  0
    1.1195    0.0879    0.0000 C   0  0  0  0  0  0  0  0  0  0  0  0
    0.5672   -0.5251    0.0000 C   0  0  0  0  0  0  0  0  0  0  0  0
   -0.2395   -0.3538    0.0000 C   0  0  0  0  0  0  0  0  0  0  0  0
   -0.7918   -0.9668    0.0000 C   0  0  0  0  0  0  0  0  0  0  0  0
   -0.5368   -1.7511    0.0000 C   0  0  0  0  0  0  0  0  0  0  0  0
    0.2704   -1.9230    0.0000 C   0  0  0  0  0  0  0  0  0  0  0  0
    0.8221   -1.3100    0.0000 C   0  0  0  0  0  0  0  0  0  0  0  0
   -1.0885   -2.3647    0.0000 Br  0  0  0  0  0  0  0  0  0  0  0  0
  1  2  2  0        0
  2  3  1  0        0
  3  4  2  0        0
  4  5  1  0        0
  5  6  2  0        0
  6  1  1  0        0
  4  7  1  0        0
  7  8  1  0        0
  8  9  2  0        0
  9  5  1  0        0
  7 10  1  0        0
 10 11  1  0        0
 11 12  2  0        0
 12 13  1  0        0
 13 14  2  0        0
 14 15  1  0        0
 15 16  2  0        0
 16 11  1  0        0
 14 17  1  0        0
M  END
$$$$
