1a.sdf
  ChemDraw10132515042D

 20 22  0  0  0  0  0  0  0  0999 V2000
   -1.6377    1.3320    0.0000 C   0  0  0  0  0  0  0  0  0  0  0  0
   -1.6377    0.5070    0.0000 C   0  0  0  0  0  0  0  0  0  0  0  0
   -0.9233    0.0945    0.0000 C   0  0  0  0  0  0  0  0  0  0  0  0
   -0.2088    0.5070    0.0000 C   0  0  0  0  0  0  0  0  0  0  0  0
   -0.2088    1.3320    0.0000 C   0  0  0  0  0  0  0  0  0  0  0  0
   -0.9233    1.7445    0.0000 C   0  0  0  0  0  0  0  0  0  0  0  0
    0.5761    0.2521    0.0000 N   0  0  0  0  0  0  0  0  0  0  0  0
    1.0608    0.9195    0.0000 C   0  0  0  0  0  0  0  0  0  0  0  0
    0.5761    1.5870    0.0000 C   0  0  0  0  0  0  0  0  0  0  0  0
    0.8310    2.3719    0.0000 C   0  0  0  0  0  0  0  0  0  0  0  0
    0.2787    2.9849    0.0000 H   0  0  0  0  0  0  0  0  0  0  0  0
    1.6377    2.5432    0.0000 O   0  0  0  0  0  0  0  0  0  0  0  0
    0.8310   -0.5322    0.0000 C   0  0  0  0  0  0  0  0  0  0  0  0
    0.2787   -1.1453    0.0000 C   0  0  0  0  0  0  0  0  0  0  0  0
   -0.5279   -0.9740    0.0000 C   0  0  0  0  0  0  0  0  0  0  0  0
   -1.0802   -1.5870    0.0000 C   0  0  0  0  0  0  0  0  0  0  0  0
   -0.8253   -2.3713    0.0000 C   0  0  0  0  0  0  0  0  0  0  0  0
   -0.0180   -2.5432    0.0000 C   0  0  0  0  0  0  0  0  0  0  0  0
    0.5337   -1.9302    0.0000 C   0  0  0  0  0  0  0  0  0  0  0  0
   -1.3770   -2.9849    0.0000 Br  0  0  0  0  0  0  0  0  0  0  0  0
  1  2  2  0        0
  2  3  1  0        0
  3  4  2  0        0
  4  5  1  0        0
  5  6  2  0        0
  6  1  1  0        0
  4  7  1  0        0
  7  8  1  0        0
  8  9  2  0        0
  9  5  1  0        0
  9 10  1  0        0
 10 11  1  0        0
 10 12  2  0        0
  7 13  1  0        0
 13 14  1  0        0
 14 15  2  0        0
 15 16  1  0        0
 16 17  2  0        0
 17 18  1  0        0
 18 19  2  0        0
 19 14  1  0        0
 17 20  1  0        0
M  END
$$$$
