7a.sdf
  ChemDraw10132515082D

 22 24  0  0  0  0  0  0  0  0999 V2000
   -1.9138    0.8536    0.0000 C   0  0  0  0  0  0  0  0  0  0  0  0
   -1.9138    0.0286    0.0000 C   0  0  0  0  0  0  0  0  0  0  0  0
   -1.1994   -0.3839    0.0000 C   0  0  0  0  0  0  0  0  0  0  0  0
   -0.4850    0.0286    0.0000 C   0  0  0  0  0  0  0  0  0  0  0  0
   -0.4850    0.8536    0.0000 C   0  0  0  0  0  0  0  0  0  0  0  0
   -1.1994    1.2661    0.0000 C   0  0  0  0  0  0  0  0  0  0  0  0
    0.2999   -0.2263    0.0000 N   0  0  0  0  0  0  0  0  0  0  0  0
    0.7846    0.4411    0.0000 C   0  0  0  0  0  0  0  0  0  0  0  0
    0.2999    1.1086    0.0000 C   0  0  0  0  0  0  0  0  0  0  0  0
    0.5549    1.8935    0.0000 C   0  0  0  0  0  0  0  0  0  0  0  0
    1.3615    2.0648    0.0000 C   0  0  0  0  0  0  0  0  0  0  0  0
    0.5549   -1.0106    0.0000 C   0  0  0  0  0  0  0  0  0  0  0  0
    0.0026   -1.6236    0.0000 C   0  0  0  0  0  0  0  0  0  0  0  0
   -0.8041   -1.4523    0.0000 C   0  0  0  0  0  0  0  0  0  0  0  0
   -1.3564   -2.0654    0.0000 C   0  0  0  0  0  0  0  0  0  0  0  0
   -1.1014   -2.8503    0.0000 C   0  0  0  0  0  0  0  0  0  0  0  0
   -0.2942   -3.0216    0.0000 C   0  0  0  0  0  0  0  0  0  0  0  0
    0.2575   -2.4085    0.0000 C   0  0  0  0  0  0  0  0  0  0  0  0
   -1.6532   -3.4633    0.0000 Br  0  0  0  0  0  0  0  0  0  0  0  0
    1.9138    1.4518    0.0000 O   0  0  0  0  0  0  0  0  0  0  0  0
    1.6171    2.8497    0.0000 O   0  0  0  0  0  0  0  0  0  0  0  0
    1.0653    3.4633    0.0000 C   0  0  0  0  0  0  0  0  0  0  0  0
  1  2  2  0        0
  2  3  1  0        0
  3  4  2  0        0
  4  5  1  0        0
  5  6  2  0        0
  6  1  1  0        0
  4  7  1  0        0
  7  8  1  0        0
  8  9  2  0        0
  9  5  1  0        0
  9 10  1  0        0
 10 11  1  0        0
  7 12  1  0        0
 12 13  1  0        0
 13 14  2  0        0
 14 15  1  0        0
 15 16  2  0        0
 16 17  1  0        0
 17 18  2  0        0
 18 13  1  0        0
 16 19  1  0        0
 11 20  2  0        0
 11 21  1  0        0
 21 22  1  0        0
M  END
$$$$
