4b.sdf
  ChemDraw10132515312D

 18 20  0  0  0  0  0  0  0  0999 V2000
   -1.6378    1.3321    0.0000 C   0  0  0  0  0  0  0  0  0  0  0  0
   -1.6378    0.5071    0.0000 C   0  0  0  0  0  0  0  0  0  0  0  0
   -0.9233    0.0946    0.0000 C   0  0  0  0  0  0  0  0  0  0  0  0
   -0.2089    0.5071    0.0000 C   0  0  0  0  0  0  0  0  0  0  0  0
   -0.2089    1.3321    0.0000 C   0  0  0  0  0  0  0  0  0  0  0  0
   -0.9233    1.7446    0.0000 C   0  0  0  0  0  0  0  0  0  0  0  0
    0.5760    0.2519    0.0000 N   0  0  0  0  0  0  0  0  0  0  0  0
    1.0608    0.9196    0.0000 C   0  0  0  0  0  0  0  0  0  0  0  0
    0.5760    1.5870    0.0000 C   0  0  0  0  0  0  0  0  0  0  0  0
    0.8309    2.3713    0.0000 C   0  0  0  0  0  0  0  0  0  0  0  0
    0.8309   -0.5330    0.0000 C   0  0  0  0  0  0  0  0  0  0  0  0
    0.2787   -1.1459    0.0000 C   0  0  0  0  0  0  0  0  0  0  0  0
   -0.5279   -0.9740    0.0000 C   0  0  0  0  0  0  0  0  0  0  0  0
   -1.0803   -1.5870    0.0000 C   0  0  0  0  0  0  0  0  0  0  0  0
   -0.8254   -2.3719    0.0000 N   0  0  0  0  0  0  0  0  0  0  0  0
   -0.0180   -2.5432    0.0000 C   0  0  0  0  0  0  0  0  0  0  0  0
    0.5336   -1.9302    0.0000 C   0  0  0  0  0  0  0  0  0  0  0  0
    1.6378    2.5432    0.0000 O   0  0  0  0  0  0  0  0  0  0  0  0
  1  2  2  0        0
  2  3  1  0        0
  3  4  2  0        0
  4  5  1  0        0
  5  6  2  0        0
  6  1  1  0        0
  4  7  1  0        0
  7  8  1  0        0
  8  9  2  0        0
  9  5  1  0        0
  9 10  1  0        0
  7 11  1  0        0
 11 12  1  0        0
 12 13  2  0        0
 13 14  1  0        0
 14 15  2  0        0
 15 16  1  0        0
 16 17  2  0        0
 17 12  1  0        0
 10 18  1  0        0
M  END
$$$$
