1.sdf
  ChemDraw10132514482D

 12 13  0  0  0  0  0  0  0  0999 V2000
   -1.6377   -0.2077    0.0000 C   0  0  0  0  0  0  0  0  0  0  0  0
   -1.6377   -1.0327    0.0000 C   0  0  0  0  0  0  0  0  0  0  0  0
   -0.9233   -1.4452    0.0000 C   0  0  0  0  0  0  0  0  0  0  0  0
   -0.2088   -1.0327    0.0000 C   0  0  0  0  0  0  0  0  0  0  0  0
   -0.2088   -0.2077    0.0000 C   0  0  0  0  0  0  0  0  0  0  0  0
   -0.9233    0.2048    0.0000 C   0  0  0  0  0  0  0  0  0  0  0  0
    0.5761   -1.2876    0.0000 N   0  0  0  0  0  0  0  0  0  0  0  0
    1.0608   -0.6202    0.0000 C   0  0  0  0  0  0  0  0  0  0  0  0
    0.5761    0.0473    0.0000 C   0  0  0  0  0  0  0  0  0  0  0  0
    0.8310    0.8322    0.0000 C   0  0  0  0  0  0  0  0  0  0  0  0
    0.2787    1.4452    0.0000 H   0  0  0  0  0  0  0  0  0  0  0  0
    1.6377    1.0035    0.0000 O   0  0  0  0  0  0  0  0  0  0  0  0
  1  2  2  0        0
  2  3  1  0        0
  3  4  2  0        0
  4  5  1  0        0
  5  6  2  0        0
  6  1  1  0        0
  4  7  1  0        0
  7  8  1  0        0
  8  9  2  0        0
  9  5  1  0        0
  9 10  1  0        0
 10 11  1  0        0
 10 12  2  0        0
M  END
$$$$
