0d.sdf
  ChemDraw10132515332D

 17 19  0  0  0  0  0  0  0  0999 V2000
   -1.6378    1.7313    0.0000 C   0  0  0  0  0  0  0  0  0  0  0  0
   -1.6378    0.9063    0.0000 C   0  0  0  0  0  0  0  0  0  0  0  0
   -0.9233    0.4938    0.0000 C   0  0  0  0  0  0  0  0  0  0  0  0
   -0.2089    0.9063    0.0000 C   0  0  0  0  0  0  0  0  0  0  0  0
   -0.2089    1.7313    0.0000 C   0  0  0  0  0  0  0  0  0  0  0  0
   -0.9233    2.1438    0.0000 C   0  0  0  0  0  0  0  0  0  0  0  0
    0.5760    0.6513    0.0000 N   0  0  0  0  0  0  0  0  0  0  0  0
    1.0608    1.3188    0.0000 C   0  0  0  0  0  0  0  0  0  0  0  0
    0.5760    1.9865    0.0000 C   0  0  0  0  0  0  0  0  0  0  0  0
    0.8312   -0.1330    0.0000 C   0  0  0  0  0  0  0  0  0  0  0  0
    0.2787   -0.7459    0.0000 C   0  0  0  0  0  0  0  0  0  0  0  0
   -0.5284   -0.5746    0.0000 C   0  0  0  0  0  0  0  0  0  0  0  0
   -1.0801   -1.1876    0.0000 C   0  0  0  0  0  0  0  0  0  0  0  0
   -0.8251   -1.9719    0.0000 C   0  0  0  0  0  0  0  0  0  0  0  0
   -0.0186   -2.1438    0.0000 C   0  0  0  0  0  0  0  0  0  0  0  0
    0.5336   -1.5308    0.0000 C   0  0  0  0  0  0  0  0  0  0  0  0
    1.6378   -0.3043    0.0000 O   0  0  0  0  0  0  0  0  0  0  0  0
  1  2  2  0        0
  2  3  1  0        0
  3  4  2  0        0
  4  5  1  0        0
  5  6  2  0        0
  6  1  1  0        0
  4  7  1  0        0
  7  8  1  0        0
  8  9  2  0        0
  9  5  1  0        0
  7 10  1  0        0
 10 11  1  0        0
 11 12  2  0        0
 12 13  1  0        0
 13 14  2  0        0
 14 15  1  0        0
 15 16  2  0        0
 16 11  1  0        0
 10 17  2  0        0
M  END
$$$$
