5b.sdf
  ChemDraw10132515312D

 22 24  0  0  0  0  0  0  0  0999 V2000
   -2.2963    0.4619    0.0000 C   0  0  0  0  0  0  0  0  0  0  0  0
   -2.2963   -0.3631    0.0000 C   0  0  0  0  0  0  0  0  0  0  0  0
   -1.5818   -0.7756    0.0000 C   0  0  0  0  0  0  0  0  0  0  0  0
   -0.8673   -0.3631    0.0000 C   0  0  0  0  0  0  0  0  0  0  0  0
   -0.8673    0.4619    0.0000 C   0  0  0  0  0  0  0  0  0  0  0  0
   -1.5818    0.8744    0.0000 C   0  0  0  0  0  0  0  0  0  0  0  0
   -0.0825   -0.6181    0.0000 N   0  0  0  0  0  0  0  0  0  0  0  0
    0.4023    0.0494    0.0000 C   0  0  0  0  0  0  0  0  0  0  0  0
   -0.0825    0.7168    0.0000 C   0  0  0  0  0  0  0  0  0  0  0  0
    0.1724    1.5016    0.0000 C   0  0  0  0  0  0  0  0  0  0  0  0
    0.9793    1.6730    0.0000 C   0  0  0  0  0  0  0  0  0  0  0  0
    0.1724   -1.4024    0.0000 C   0  0  0  0  0  0  0  0  0  0  0  0
   -0.3798   -2.0156    0.0000 C   0  0  0  0  0  0  0  0  0  0  0  0
   -1.1864   -1.8443    0.0000 C   0  0  0  0  0  0  0  0  0  0  0  0
   -1.7388   -2.4573    0.0000 C   0  0  0  0  0  0  0  0  0  0  0  0
   -1.4839   -3.2421    0.0000 N   0  0  0  0  0  0  0  0  0  0  0  0
   -0.6765   -3.4134    0.0000 C   0  0  0  0  0  0  0  0  0  0  0  0
   -0.1249   -2.8005    0.0000 C   0  0  0  0  0  0  0  0  0  0  0  0
    1.2342    2.4578    0.0000 C   0  0  0  0  0  0  0  0  0  0  0  0
    2.0413    2.6291    0.0000 O   0  0  0  0  0  0  0  0  0  0  0  0
    0.6823    3.0708    0.0000 O   0  0  0  0  0  0  0  0  0  0  0  0
    2.2963    3.4134    0.0000 C   0  0  0  0  0  0  0  0  0  0  0  0
  1  2  2  0        0
  2  3  1  0        0
  3  4  2  0        0
  4  5  1  0        0
  5  6  2  0        0
  6  1  1  0        0
  4  7  1  0        0
  7  8  1  0        0
  8  9  2  0        0
  9  5  1  0        0
  9 10  1  0        0
 10 11  2  0        0
  7 12  1  0        0
 12 13  1  0        0
 13 14  2  0        0
 14 15  1  0        0
 15 16  2  0        0
 16 17  1  0        0
 17 18  2  0        0
 18 13  1  0        0
 11 19  1  0        0
 19 20  1  0        0
 19 21  2  0        0
 20 22  1  0        0
M  END
$$$$
