8c.sdf
  ChemDraw10132515202D

 29 32  0  0  0  0  0  0  0  0999 V2000
   -3.2725    0.6826    0.0000 C   0  0  0  0  0  0  0  0  0  0  0  0
   -3.2725   -0.1424    0.0000 C   0  0  0  0  0  0  0  0  0  0  0  0
   -2.5581   -0.5549    0.0000 C   0  0  0  0  0  0  0  0  0  0  0  0
   -1.8436   -0.1424    0.0000 C   0  0  0  0  0  0  0  0  0  0  0  0
   -1.8436    0.6826    0.0000 C   0  0  0  0  0  0  0  0  0  0  0  0
   -2.5581    1.0951    0.0000 C   0  0  0  0  0  0  0  0  0  0  0  0
   -1.0588   -0.3973    0.0000 N   0  0  0  0  0  0  0  0  0  0  0  0
   -0.5741    0.2701    0.0000 C   0  0  0  0  0  0  0  0  0  0  0  0
   -1.0588    0.9376    0.0000 C   0  0  0  0  0  0  0  0  0  0  0  0
   -0.8038    1.7225    0.0000 C   0  0  0  0  0  0  0  0  0  0  0  0
    0.0029    1.8938    0.0000 N   0  0  0  0  0  0  0  0  0  0  0  0
   -0.8038   -1.1816    0.0000 C   0  0  0  0  0  0  0  0  0  0  0  0
   -1.3561   -1.7947    0.0000 C   0  0  0  0  0  0  0  0  0  0  0  0
   -2.1628   -1.6234    0.0000 C   0  0  0  0  0  0  0  0  0  0  0  0
   -2.7151   -2.2364    0.0000 C   0  0  0  0  0  0  0  0  0  0  0  0
   -2.4601   -3.0213    0.0000 C   0  0  0  0  0  0  0  0  0  0  0  0
   -1.6529   -3.1926    0.0000 C   0  0  0  0  0  0  0  0  0  0  0  0
   -1.1011   -2.5796    0.0000 C   0  0  0  0  0  0  0  0  0  0  0  0
   -3.0118   -3.6343    0.0000 Cl  0  0  0  0  0  0  0  0  0  0  0  0
    0.2578    2.6781    0.0000 N   0  0  0  0  0  0  0  0  0  0  0  0
    1.0651    2.8500    0.0000 C   0  0  0  0  0  0  0  0  0  0  0  0
    1.3200    3.6343    0.0000 O   0  0  0  0  0  0  0  0  0  0  0  0
    1.6168    2.2364    0.0000 C   0  0  0  0  0  0  0  0  0  0  0  0
    1.3618    1.4521    0.0000 C   0  0  0  0  0  0  0  0  0  0  0  0
    1.9135    0.8390    0.0000 C   0  0  0  0  0  0  0  0  0  0  0  0
    2.7208    1.0103    0.0000 C   0  0  0  0  0  0  0  0  0  0  0  0
    2.9757    1.7947    0.0000 C   0  0  0  0  0  0  0  0  0  0  0  0
    2.4234    2.4077    0.0000 C   0  0  0  0  0  0  0  0  0  0  0  0
    3.2725    0.3967    0.0000 Br  0  0  0  0  0  0  0  0  0  0  0  0
  1  2  2  0        0
  2  3  1  0        0
  3  4  2  0        0
  4  5  1  0        0
  5  6  2  0        0
  6  1  1  0        0
  4  7  1  0        0
  7  8  1  0        0
  8  9  2  0        0
  9  5  1  0        0
  9 10  1  0        0
 10 11  2  0        0
  7 12  1  0        0
 12 13  1  0        0
 13 14  2  0        0
 14 15  1  0        0
 15 16  2  0        0
 16 17  1  0        0
 17 18  2  0        0
 18 13  1  0        0
 16 19  1  0        0
 11 20  1  0        0
 20 21  1  0        0
 21 22  2  0        0
 21 23  1  0        0
 23 24  2  0        0
 24 25  1  0        0
 25 26  2  0        0
 26 27  1  0        0
 27 28  2  0        0
 28 23  1  0        0
 26 29  1  0        0
M  END
$$$$
