16c.sdf
  ChemDraw10132515202D

 27 30  0  0  0  0  0  0  0  0999 V2000
   -3.5277    1.2951    0.0000 C   0  0  0  0  0  0  0  0  0  0  0  0
   -3.5277    0.4701    0.0000 C   0  0  0  0  0  0  0  0  0  0  0  0
   -2.8133    0.0576    0.0000 C   0  0  0  0  0  0  0  0  0  0  0  0
   -2.0989    0.4701    0.0000 C   0  0  0  0  0  0  0  0  0  0  0  0
   -2.0989    1.2951    0.0000 C   0  0  0  0  0  0  0  0  0  0  0  0
   -2.8133    1.7076    0.0000 C   0  0  0  0  0  0  0  0  0  0  0  0
   -1.3140    0.2151    0.0000 N   0  0  0  0  0  0  0  0  0  0  0  0
   -0.8293    0.8826    0.0000 C   0  0  0  0  0  0  0  0  0  0  0  0
   -1.3140    1.5500    0.0000 C   0  0  0  0  0  0  0  0  0  0  0  0
   -1.0590    2.3343    0.0000 C   0  0  0  0  0  0  0  0  0  0  0  0
   -1.0590   -0.5698    0.0000 C   0  0  0  0  0  0  0  0  0  0  0  0
   -1.6113   -1.1828    0.0000 C   0  0  0  0  0  0  0  0  0  0  0  0
   -2.4180   -1.0109    0.0000 C   0  0  0  0  0  0  0  0  0  0  0  0
   -2.9703   -1.6239    0.0000 C   0  0  0  0  0  0  0  0  0  0  0  0
   -2.7153   -2.4088    0.0000 C   0  0  0  0  0  0  0  0  0  0  0  0
   -1.9081   -2.5801    0.0000 C   0  0  0  0  0  0  0  0  0  0  0  0
   -1.3564   -1.9671    0.0000 C   0  0  0  0  0  0  0  0  0  0  0  0
   -3.2671   -3.0218    0.0000 Cl  0  0  0  0  0  0  0  0  0  0  0  0
   -0.2524    2.5062    0.0000 O   0  0  0  0  0  0  0  0  0  0  0  0
    0.3005    1.8932    0.0000 C   0  0  0  0  0  0  0  0  0  0  0  0
    1.1072    2.0651    0.0000 C   0  0  0  0  0  0  0  0  0  0  0  0
    1.6595    1.4526    0.0000 C   0  0  0  0  0  0  0  0  0  0  0  0
    2.4661    1.6245    0.0000 C   0  0  0  0  0  0  0  0  0  0  0  0
    2.7211    2.4094    0.0000 C   0  0  0  0  0  0  0  0  0  0  0  0
    2.1688    3.0218    0.0000 C   0  0  0  0  0  0  0  0  0  0  0  0
    1.3615    2.8500    0.0000 C   0  0  0  0  0  0  0  0  0  0  0  0
    3.5277    2.5813    0.0000 Cl  0  0  0  0  0  0  0  0  0  0  0  0
  1  2  2  0        0
  2  3  1  0        0
  3  4  2  0        0
  4  5  1  0        0
  5  6  2  0        0
  6  1  1  0        0
  4  7  1  0        0
  7  8  1  0        0
  8  9  2  0        0
  9  5  1  0        0
  9 10  1  0        0
  7 11  1  0        0
 11 12  1  0        0
 12 13  2  0        0
 13 14  1  0        0
 14 15  2  0        0
 15 16  1  0        0
 16 17  2  0        0
 17 12  1  0        0
 15 18  1  0        0
 10 19  1  0        0
 19 20  1  0        0
 20 21  1  0        0
 21 22  1  0        0
 22 23  2  0        0
 23 24  1  0        0
 24 25  2  0        0
 25 26  1  0        0
 26 21  2  0        0
 24 27  1  0        0
M  END
$$$$
