15d.sdf
  ChemDraw10132515362D

 27 30  0  0  0  0  0  0  0  0999 V2000
   -2.9758    0.3754    0.0000 C   0  0  0  0  0  0  0  0  0  0  0  0
   -2.9758   -0.4496    0.0000 C   0  0  0  0  0  0  0  0  0  0  0  0
   -2.2613   -0.8621    0.0000 C   0  0  0  0  0  0  0  0  0  0  0  0
   -1.5469   -0.4496    0.0000 C   0  0  0  0  0  0  0  0  0  0  0  0
   -1.5469    0.3754    0.0000 C   0  0  0  0  0  0  0  0  0  0  0  0
   -2.2613    0.7879    0.0000 C   0  0  0  0  0  0  0  0  0  0  0  0
   -0.7620   -0.7045    0.0000 N   0  0  0  0  0  0  0  0  0  0  0  0
   -0.2772   -0.0371    0.0000 C   0  0  0  0  0  0  0  0  0  0  0  0
   -0.7620    0.6303    0.0000 C   0  0  0  0  0  0  0  0  0  0  0  0
   -0.5071    1.4152    0.0000 C   0  0  0  0  0  0  0  0  0  0  0  0
    0.3003    1.5870    0.0000 O   0  0  0  0  0  0  0  0  0  0  0  0
    0.5547    2.3716    0.0000 C   0  0  0  0  0  0  0  0  0  0  0  0
    1.3618    2.5435    0.0000 C   0  0  0  0  0  0  0  0  0  0  0  0
    0.0030    2.9846    0.0000 O   0  0  0  0  0  0  0  0  0  0  0  0
   -0.5071   -1.4888    0.0000 C   0  0  0  0  0  0  0  0  0  0  0  0
   -1.0587   -2.1018    0.0000 C   0  0  0  0  0  0  0  0  0  0  0  0
    0.3003   -1.6602    0.0000 O   0  0  0  0  0  0  0  0  0  0  0  0
   -1.8659   -1.9305    0.0000 C   0  0  0  0  0  0  0  0  0  0  0  0
   -2.4175   -2.5435    0.0000 C   0  0  0  0  0  0  0  0  0  0  0  0
   -2.1626   -3.3286    0.0000 C   0  0  0  0  0  0  0  0  0  0  0  0
   -1.3555   -3.4997    0.0000 C   0  0  0  0  0  0  0  0  0  0  0  0
   -0.8038   -2.8861    0.0000 C   0  0  0  0  0  0  0  0  0  0  0  0
    1.9143    1.9302    0.0000 C   0  0  0  0  0  0  0  0  0  0  0  0
    2.7209    2.1021    0.0000 C   0  0  0  0  0  0  0  0  0  0  0  0
    2.9758    2.8872    0.0000 C   0  0  0  0  0  0  0  0  0  0  0  0
    2.4236    3.4997    0.0000 C   0  0  0  0  0  0  0  0  0  0  0  0
    1.6162    3.3283    0.0000 C   0  0  0  0  0  0  0  0  0  0  0  0
  1  2  2  0        0
  2  3  1  0        0
  3  4  2  0        0
  4  5  1  0        0
  5  6  2  0        0
  6  1  1  0        0
  4  7  1  0        0
  7  8  1  0        0
  8  9  2  0        0
  9  5  1  0        0
  9 10  1  0        0
 10 11  1  0        0
 11 12  1  0        0
 12 13  1  0        0
 12 14  2  0        0
  7 15  1  0        0
 15 16  1  0        0
 15 17  2  0        0
 16 18  1  0        0
 18 19  2  0        0
 19 20  1  0        0
 20 21  2  0        0
 21 22  1  0        0
 22 16  2  0        0
 13 23  1  0        0
 23 24  2  0        0
 24 25  1  0        0
 25 26  2  0        0
 26 27  1  0        0
 27 13  2  0        0
M  END
$$$$
