17d.sdf
  ChemDraw10132515362D

 23 25  0  0  0  0  0  0  0  0999 V2000
   -2.4449    0.4619    0.0000 C   0  0  0  0  0  0  0  0  0  0  0  0
   -2.4449   -0.3631    0.0000 C   0  0  0  0  0  0  0  0  0  0  0  0
   -1.7307   -0.7756    0.0000 C   0  0  0  0  0  0  0  0  0  0  0  0
   -1.0163   -0.3631    0.0000 C   0  0  0  0  0  0  0  0  0  0  0  0
   -1.0163    0.4619    0.0000 C   0  0  0  0  0  0  0  0  0  0  0  0
   -1.7307    0.8744    0.0000 C   0  0  0  0  0  0  0  0  0  0  0  0
   -0.2311   -0.6181    0.0000 N   0  0  0  0  0  0  0  0  0  0  0  0
    0.2534    0.0494    0.0000 C   0  0  0  0  0  0  0  0  0  0  0  0
   -0.2311    0.7168    0.0000 C   0  0  0  0  0  0  0  0  0  0  0  0
    0.0238    1.5019    0.0000 C   0  0  0  0  0  0  0  0  0  0  0  0
    0.8304    1.6730    0.0000 N   0  0  0  0  0  0  0  0  0  0  0  0
    1.0858    2.4575    0.0000 N   0  0  0  0  0  0  0  0  0  0  0  0
    1.8924    2.6286    0.0000 C   0  0  0  0  0  0  0  0  0  0  0  0
    2.1476    3.4137    0.0000 O   0  0  0  0  0  0  0  0  0  0  0  0
    2.4449    2.0156    0.0000 N   0  0  0  0  0  0  0  0  0  0  0  0
    0.0243   -1.4029    0.0000 C   0  0  0  0  0  0  0  0  0  0  0  0
   -0.5281   -2.0159    0.0000 C   0  0  0  0  0  0  0  0  0  0  0  0
   -1.3347   -1.8446    0.0000 C   0  0  0  0  0  0  0  0  0  0  0  0
   -1.8869   -2.4575    0.0000 C   0  0  0  0  0  0  0  0  0  0  0  0
   -1.6314   -3.2418    0.0000 C   0  0  0  0  0  0  0  0  0  0  0  0
   -0.8249   -3.4137    0.0000 C   0  0  0  0  0  0  0  0  0  0  0  0
   -0.2724   -2.8002    0.0000 C   0  0  0  0  0  0  0  0  0  0  0  0
    0.8309   -1.5742    0.0000 O   0  0  0  0  0  0  0  0  0  0  0  0
  1  2  2  0        0
  2  3  1  0        0
  3  4  2  0        0
  4  5  1  0        0
  5  6  2  0        0
  6  1  1  0        0
  4  7  1  0        0
  7  8  1  0        0
  8  9  2  0        0
  9  5  1  0        0
  9 10  1  0        0
 10 11  2  0        0
 11 12  1  0        0
 12 13  1  0        0
 13 14  2  0        0
 13 15  1  0        0
  7 16  1  0        0
 16 17  1  0        0
 17 18  1  0        0
 18 19  2  0        0
 19 20  1  0        0
 20 21  2  0        0
 21 22  1  0        0
 22 17  2  0        0
 16 23  2  0        0
M  END
$$$$
